
OS:Version,
  {82597997-e513-451c-9981-a9d496e3135e}, !- Handle
  2.7.2;                                  !- Version Identifier

OS:SimulationControl,
  {4803ba04-83d6-4178-a038-5a957200fa08}, !- Handle
  ,                                       !- Do Zone Sizing Calculation
  ,                                       !- Do System Sizing Calculation
  ,                                       !- Do Plant Sizing Calculation
  No,                                     !- Run Simulation for Sizing Periods
  Yes,                                    !- Run Simulation for Weather File Run Periods
  ,                                       !- Loads Convergence Tolerance Value
  ,                                       !- Temperature Convergence Tolerance Value {deltaC}
  MinimalShadowing,                       !- Solar Distribution
  50;                                     !- Maximum Number of Warmup Days

OS:YearDescription,
  {f2cb09bc-9dd7-4910-aaed-df70fde1f616}, !- Handle
  2009,                                   !- Calendar Year
  ,                                       !- Day of Week for Start Day
  ;                                       !- Is Leap Year

OS:RunPeriod,
  {07c08473-8d24-4425-bffc-707bba8401bb}, !- Handle
  SACRAMENTO-EXECUTIVE_724830_CZ2010,     !- Name
  1,                                      !- Begin Month
  1,                                      !- Begin Day of Month
  12,                                     !- End Month
  31,                                     !- End Day of Month
  No,                                     !- Use Weather File Holidays and Special Days
  No,                                     !- Use Weather File Daylight Saving Period
  Yes,                                    !- Apply Weekend Holiday Rule
  ,                                       !- Use Weather File Rain Indicators
  ,                                       !- Use Weather File Snow Indicators
  ;                                       !- Number of Times Runperiod to be Repeated

OS:Site,
  {8ce1c66c-2c47-4213-8328-237c42d437b6}, !- Handle
  SACRAMENTO-EXECUTIVE-ARP Design_Conditions, !- Name
  38.58,                                  !- Latitude {deg}
  -121.49,                                !- Longitude {deg}
  -8,                                     !- Time Zone {hr}
  3.9624,                                 !- Elevation {m}
  ;                                       !- Terrain

OS:SizingPeriod:DesignDay,
  {588547b1-829c-4a66-8923-e95eeba43e13}, !- Handle
  SACRAMENTO-EXECUTIVE-ARP Ann Htg 99.6% Condns DB, !- Name
  -0.2,                                   !- Maximum Dry-Bulb Temperature {C}
  0,                                      !- Daily Dry-Bulb Temperature Range {deltaC}
  -0.2,                                   !- Humidity Indicating Conditions at Maximum Dry-Bulb
  101277,                                 !- Barometric Pressure {Pa}
  0.4,                                    !- Wind Speed {m/s}
  90,                                     !- Wind Direction {deg}
  0,                                      !- Sky Clearness
  0,                                      !- Rain Indicator
  0,                                      !- Snow Indicator
  21,                                     !- Day of Month
  1,                                      !- Month
  WinterDesignDay,                        !- Day Type
  0,                                      !- Daylight Saving Time Indicator
  Wetbulb,                                !- Humidity Indicating Type
  ,                                       !- Humidity Indicating Day Schedule Name
  DefaultMultipliers,                     !- Dry-Bulb Temperature Range Modifier Type
  ,                                       !- Dry-Bulb Temperature Range Modifier Schedule Name
  ASHRAEClearSky;                         !- Solar Model Indicator

OS:SizingPeriod:DesignDay,
  {b3df755f-b920-4f1b-bdd4-661e171e0d91}, !- Handle
  SACRAMENTO-EXECUTIVE-ARP Ann Clg 0.4% Condns DB=>MCWB, !- Name
  37.9,                                   !- Maximum Dry-Bulb Temperature {C}
  17.3,                                   !- Daily Dry-Bulb Temperature Range {deltaC}
  21.1,                                   !- Humidity Indicating Conditions at Maximum Dry-Bulb
  101277,                                 !- Barometric Pressure {Pa}
  3.4,                                    !- Wind Speed {m/s}
  270,                                    !- Wind Direction {deg}
  0,                                      !- Sky Clearness
  0,                                      !- Rain Indicator
  0,                                      !- Snow Indicator
  21,                                     !- Day of Month
  7,                                      !- Month
  SummerDesignDay,                        !- Day Type
  0,                                      !- Daylight Saving Time Indicator
  Wetbulb,                                !- Humidity Indicating Type
  ,                                       !- Humidity Indicating Day Schedule Name
  DefaultMultipliers,                     !- Dry-Bulb Temperature Range Modifier Type
  ,                                       !- Dry-Bulb Temperature Range Modifier Schedule Name
  ASHRAETau,                              !- Solar Model Indicator
  ,                                       !- Beam Solar Day Schedule Name
  ,                                       !- Diffuse Solar Day Schedule Name
  0.382,                                  !- ASHRAE Taub {dimensionless}
  2.325;                                  !- ASHRAE Taud {dimensionless}

OS:SizingPeriod:DesignDay,
  {7b9b51ba-063e-4c8d-998a-a3409363d2f1}, !- Handle
  SACRAMENTO-EXECUTIVE-ARP Ann Clg 0.4% Condns DP=>MCDB, !- Name
  28.5,                                   !- Maximum Dry-Bulb Temperature {C}
  17.3,                                   !- Daily Dry-Bulb Temperature Range {deltaC}
  17.9,                                   !- Humidity Indicating Conditions at Maximum Dry-Bulb
  101277,                                 !- Barometric Pressure {Pa}
  3.3,                                    !- Wind Speed {m/s}
  270,                                    !- Wind Direction {deg}
  0,                                      !- Sky Clearness
  0,                                      !- Rain Indicator
  0,                                      !- Snow Indicator
  21,                                     !- Day of Month
  7,                                      !- Month
  SummerDesignDay,                        !- Day Type
  0,                                      !- Daylight Saving Time Indicator
  Dewpoint,                               !- Humidity Indicating Type
  ,                                       !- Humidity Indicating Day Schedule Name
  DefaultMultipliers,                     !- Dry-Bulb Temperature Range Modifier Type
  ,                                       !- Dry-Bulb Temperature Range Modifier Schedule Name
  ASHRAETau,                              !- Solar Model Indicator
  ,                                       !- Beam Solar Day Schedule Name
  ,                                       !- Diffuse Solar Day Schedule Name
  0.382,                                  !- ASHRAE Taub {dimensionless}
  2.325;                                  !- ASHRAE Taud {dimensionless}

OS:SizingPeriod:DesignDay,
  {b8ed7fd9-1dc0-493b-a199-5f83186330f2}, !- Handle
  SACRAMENTO-EXECUTIVE-ARP JUN Clg 0.4% Condns DB=>MCWB, !- Name
  38.2,                                   !- Maximum Dry-Bulb Temperature {C}
  16.8,                                   !- Daily Dry-Bulb Temperature Range {deltaC}
  21.5,                                   !- Humidity Indicating Conditions at Maximum Dry-Bulb
  101277,                                 !- Barometric Pressure {Pa}
  4.1,                                    !- Wind Speed {m/s}
  157,                                    !- Wind Direction {deg}
  0,                                      !- Sky Clearness
  0,                                      !- Rain Indicator
  0,                                      !- Snow Indicator
  21,                                     !- Day of Month
  6,                                      !- Month
  SummerDesignDay,                        !- Day Type
  0,                                      !- Daylight Saving Time Indicator
  Wetbulb,                                !- Humidity Indicating Type
  ,                                       !- Humidity Indicating Day Schedule Name
  DefaultMultipliers,                     !- Dry-Bulb Temperature Range Modifier Type
  ,                                       !- Dry-Bulb Temperature Range Modifier Schedule Name
  ASHRAETau,                              !- Solar Model Indicator
  ,                                       !- Beam Solar Day Schedule Name
  ,                                       !- Diffuse Solar Day Schedule Name
  0.351,                                  !- ASHRAE Taub {dimensionless}
  2.494;                                  !- ASHRAE Taud {dimensionless}

OS:SizingPeriod:DesignDay,
  {4ab89442-33d4-4fcc-9c78-7b6f3e5c1e26}, !- Handle
  SACRAMENTO-EXECUTIVE-ARP JUL Clg 0.4% Condns DB=>MCWB, !- Name
  41,                                     !- Maximum Dry-Bulb Temperature {C}
  17.3,                                   !- Daily Dry-Bulb Temperature Range {deltaC}
  22.1,                                   !- Humidity Indicating Conditions at Maximum Dry-Bulb
  101277,                                 !- Barometric Pressure {Pa}
  2.9,                                    !- Wind Speed {m/s}
  225,                                    !- Wind Direction {deg}
  0,                                      !- Sky Clearness
  0,                                      !- Rain Indicator
  0,                                      !- Snow Indicator
  21,                                     !- Day of Month
  7,                                      !- Month
  SummerDesignDay,                        !- Day Type
  0,                                      !- Daylight Saving Time Indicator
  Wetbulb,                                !- Humidity Indicating Type
  ,                                       !- Humidity Indicating Day Schedule Name
  DefaultMultipliers,                     !- Dry-Bulb Temperature Range Modifier Type
  ,                                       !- Dry-Bulb Temperature Range Modifier Schedule Name
  ASHRAETau,                              !- Solar Model Indicator
  ,                                       !- Beam Solar Day Schedule Name
  ,                                       !- Diffuse Solar Day Schedule Name
  0.382,                                  !- ASHRAE Taub {dimensionless}
  2.325;                                  !- ASHRAE Taud {dimensionless}

OS:SizingPeriod:DesignDay,
  {503b9674-524d-4ddb-a6ef-5147024ce726}, !- Handle
  SACRAMENTO-EXECUTIVE-ARP AUG Clg 0.4% Condns DB=>MCWB, !- Name
  39.2,                                   !- Maximum Dry-Bulb Temperature {C}
  17.9,                                   !- Daily Dry-Bulb Temperature Range {deltaC}
  22.1,                                   !- Humidity Indicating Conditions at Maximum Dry-Bulb
  101277,                                 !- Barometric Pressure {Pa}
  3,                                      !- Wind Speed {m/s}
  292,                                    !- Wind Direction {deg}
  0,                                      !- Sky Clearness
  0,                                      !- Rain Indicator
  0,                                      !- Snow Indicator
  21,                                     !- Day of Month
  8,                                      !- Month
  SummerDesignDay,                        !- Day Type
  0,                                      !- Daylight Saving Time Indicator
  Wetbulb,                                !- Humidity Indicating Type
  ,                                       !- Humidity Indicating Day Schedule Name
  DefaultMultipliers,                     !- Dry-Bulb Temperature Range Modifier Type
  ,                                       !- Dry-Bulb Temperature Range Modifier Schedule Name
  ASHRAETau,                              !- Solar Model Indicator
  ,                                       !- Beam Solar Day Schedule Name
  ,                                       !- Diffuse Solar Day Schedule Name
  0.384,                                  !- ASHRAE Taub {dimensionless}
  2.328;                                  !- ASHRAE Taud {dimensionless}

OS:SizingPeriod:DesignDay,
  {68854d36-0ab8-4076-bebc-321698947791}, !- Handle
  SACRAMENTO-EXECUTIVE-ARP SEP Clg 0.4% Condns DB=>MCWB, !- Name
  37.8,                                   !- Maximum Dry-Bulb Temperature {C}
  17.2,                                   !- Daily Dry-Bulb Temperature Range {deltaC}
  20.5,                                   !- Humidity Indicating Conditions at Maximum Dry-Bulb
  101277,                                 !- Barometric Pressure {Pa}
  2.4,                                    !- Wind Speed {m/s}
  0,                                      !- Wind Direction {deg}
  0,                                      !- Sky Clearness
  0,                                      !- Rain Indicator
  0,                                      !- Snow Indicator
  21,                                     !- Day of Month
  9,                                      !- Month
  SummerDesignDay,                        !- Day Type
  0,                                      !- Daylight Saving Time Indicator
  Wetbulb,                                !- Humidity Indicating Type
  ,                                       !- Humidity Indicating Day Schedule Name
  DefaultMultipliers,                     !- Dry-Bulb Temperature Range Modifier Type
  ,                                       !- Dry-Bulb Temperature Range Modifier Schedule Name
  ASHRAETau,                              !- Solar Model Indicator
  ,                                       !- Beam Solar Day Schedule Name
  ,                                       !- Diffuse Solar Day Schedule Name
  0.358,                                  !- ASHRAE Taub {dimensionless}
  2.451;                                  !- ASHRAE Taud {dimensionless}

OS:SizingPeriod:DesignDay,
  {965df01e-3334-49c1-bba8-2637d82bacab}, !- Handle
  SACRAMENTO-EXECUTIVE-ARP OCT Clg 0.4% Condns DB=>MCWB, !- Name
  32.7,                                   !- Maximum Dry-Bulb Temperature {C}
  13,                                     !- Daily Dry-Bulb Temperature Range {deltaC}
  18.3,                                   !- Humidity Indicating Conditions at Maximum Dry-Bulb
  101277,                                 !- Barometric Pressure {Pa}
  2.1,                                    !- Wind Speed {m/s}
  337,                                    !- Wind Direction {deg}
  0,                                      !- Sky Clearness
  0,                                      !- Rain Indicator
  0,                                      !- Snow Indicator
  21,                                     !- Day of Month
  10,                                     !- Month
  SummerDesignDay,                        !- Day Type
  0,                                      !- Daylight Saving Time Indicator
  Wetbulb,                                !- Humidity Indicating Type
  ,                                       !- Humidity Indicating Day Schedule Name
  DefaultMultipliers,                     !- Dry-Bulb Temperature Range Modifier Type
  ,                                       !- Dry-Bulb Temperature Range Modifier Schedule Name
  ASHRAETau,                              !- Solar Model Indicator
  ,                                       !- Beam Solar Day Schedule Name
  ,                                       !- Diffuse Solar Day Schedule Name
  0.347,                                  !- ASHRAE Taub {dimensionless}
  2.412;                                  !- ASHRAE Taud {dimensionless}

OS:SizingPeriod:DesignDay,
  {866e56d3-af23-4ea3-8d49-f99e705558c7}, !- Handle
  SACRAMENTO-EXECUTIVE-ARP NOV Clg 0.4% Condns DB=>MCWB, !- Name
  25.2,                                   !- Maximum Dry-Bulb Temperature {C}
  7.3,                                    !- Daily Dry-Bulb Temperature Range {deltaC}
  15.2,                                   !- Humidity Indicating Conditions at Maximum Dry-Bulb
  101277,                                 !- Barometric Pressure {Pa}
  2.4,                                    !- Wind Speed {m/s}
  292,                                    !- Wind Direction {deg}
  0,                                      !- Sky Clearness
  0,                                      !- Rain Indicator
  0,                                      !- Snow Indicator
  21,                                     !- Day of Month
  11,                                     !- Month
  SummerDesignDay,                        !- Day Type
  0,                                      !- Daylight Saving Time Indicator
  Wetbulb,                                !- Humidity Indicating Type
  ,                                       !- Humidity Indicating Day Schedule Name
  DefaultMultipliers,                     !- Dry-Bulb Temperature Range Modifier Type
  ,                                       !- Dry-Bulb Temperature Range Modifier Schedule Name
  ASHRAETau,                              !- Solar Model Indicator
  ,                                       !- Beam Solar Day Schedule Name
  ,                                       !- Diffuse Solar Day Schedule Name
  0.315,                                  !- ASHRAE Taub {dimensionless}
  2.59;                                   !- ASHRAE Taud {dimensionless}

OS:WeatherFile,
  {bb6c8d17-acae-410d-8073-8b13564fecc1}, !- Handle
  SACRAMENTO-EXECUTIVE-AP,                !- City
  -,                                      !- State Province Region
  USA,                                    !- Country
  Custom-724830,                          !- Data Source
  724830,                                 !- WMO Number
  38.5,                                   !- Latitude {deg}
  -121.5,                                 !- Longitude {deg}
  -8,                                     !- Time Zone {hr}
  5,                                      !- Elevation {m}
  file:///C:/Users/mnakajima/Documents/CBECC-Com 2019 Data/EPW/SACRAMENTO-EXECUTIVE_724830_CZ2010.epw, !- Url
  419CFB0E;                               !- Checksum

OS:Sizing:Parameters,
  {c460adfb-64a1-490a-930e-2a1bd177ae46}, !- Handle
  1,                                      !- Heating Sizing Factor
  1;                                      !- Cooling Sizing Factor

OS:Material,
  {2ef1e919-30c0-4c4c-822f-b1283250ca56}, !- Handle
  Stucco - 7/8 in.,                       !- Name
  MediumRough,                            !- Roughness
  0.022352,                               !- Thickness {m}
  0.700947539880412,                      !- Conductivity {W/m-K}
  1855.09824333832,                       !- Density {kg/m3}
  837.36,                                 !- Specific Heat {J/kg-K}
  0.9,                                    !- Thermal Absorptance
  0.7,                                    !- Solar Absorptance
  0.8;                                    !- Visible Absorptance

OS:Material,
  {c06160d1-9b74-49ef-a644-1a3ca3c8ee85}, !- Handle
  Compliance Insulation R13.99,           !- Name
  Smooth,                                 !- Roughness
  0.05671312,                             !- Thickness {m}
  0.0230187710627394,                     !- Conductivity {W/m-K}
  16.0184633739601,                       !- Density {kg/m3}
  1130.436;                               !- Specific Heat {J/kg-K}

OS:Material,
  {ccc2b89f-4f4c-4575-9341-27ecf9266154}, !- Handle
  Air - Metal Wall Framing - 16 or 24 in. OC, !- Name
  Smooth,                                 !- Roughness
  0.1397,                                 !- Thickness {m}
  1.22016793979183,                       !- Conductivity {W/m-K}
  1.28147706991681,                       !- Density {kg/m3}
  1004.832;                               !- Specific Heat {J/kg-K}

OS:Material,
  {15d98c98-c314-43e7-84ee-4446b682ec97}, !- Handle
  Gypsum Board - 1/2 in.,                 !- Name
  Smooth,                                 !- Roughness
  0.0127,                                 !- Thickness {m}
  0.158656446866265,                      !- Conductivity {W/m-K}
  640.738534958406,                       !- Density {kg/m3}
  1130.436,                               !- Specific Heat {J/kg-K}
  0.9,                                    !- Thermal Absorptance
  0.7,                                    !- Solar Absorptance
  0.8;                                    !- Visible Absorptance

OS:Material,
  {b2ece838-6568-4a81-ab3c-1d99b9297889}, !- Handle
  Gypsum Board - 5/8 in.,                 !- Name
  MediumRough,                            !- Roughness
  0.016002,                               !- Thickness {m}
  0.158656446866265,                      !- Conductivity {W/m-K}
  640.738534958406,                       !- Density {kg/m3}
  1130.436,                               !- Specific Heat {J/kg-K}
  0.9,                                    !- Thermal Absorptance
  0.7,                                    !- Solar Absorptance
  0.8;                                    !- Visible Absorptance

OS:Material,
  {d4d051fc-1b8f-4c72-aaa0-9724e495b684}, !- Handle
  Metal Standing Seam - 1/16 in.,         !- Name
  MediumRough,                            !- Roughness
  0.0015875,                              !- Thickness {m}
  2.21534037295537,                       !- Conductivity {W/m-K}
  7820.53418843482,                       !- Density {kg/m3}
  502.416,                                !- Specific Heat {J/kg-K}
  0.85,                                   !- Thermal Absorptance
  0.8,                                    !- Solar Absorptance
  0.85;                                   !- Visible Absorptance

OS:Material,
  {bb8b6824-2a4a-4472-808b-1c199b33d957}, !- Handle
  Compliance Insulation R28.63,           !- Name
  Smooth,                                 !- Roughness
  0.11606149,                             !- Thickness {m}
  0.0230187710627394,                     !- Conductivity {W/m-K}
  16.0184633739601,                       !- Density {kg/m3}
  1130.436,                               !- Specific Heat {J/kg-K}
  0.9,                                    !- Thermal Absorptance
  0.7,                                    !- Solar Absorptance
  0.8;                                    !- Visible Absorptance

OS:Material,
  {e65830bd-53c5-4146-b3ad-29d3c6fd07d5}, !- Handle
  Compliance Insulation R9.83,            !- Name
  MediumRough,                            !- Roughness
  0.03986911,                             !- Thickness {m}
  0.0230187710627394,                     !- Conductivity {W/m-K}
  16.0184633739601,                       !- Density {kg/m3}
  1130.436,                               !- Specific Heat {J/kg-K}
  0.9,                                    !- Thermal Absorptance
  0.7,                                    !- Solar Absorptance
  0.8;                                    !- Visible Absorptance

OS:Material,
  {369becd4-89b5-42a4-b64c-f8b7bd723975}, !- Handle
  Plywood - 5/8 in.,                      !- Name
  Smooth,                                 !- Roughness
  0.016002,                               !- Thickness {m}
  0.115440002246971,                      !- Conductivity {W/m-K}
  480.553901218804,                       !- Density {kg/m3}
  1884.06;                                !- Specific Heat {J/kg-K}

OS:Material,
  {1b9cd02f-b3c7-4603-a859-ddae66f39bb3}, !- Handle
  Carpet - 3/4 in.,                       !- Name
  Smooth,                                 !- Roughness
  0.01905,                                !- Thickness {m}
  0.0455183217255675,                     !- Conductivity {W/m-K}
  288.332340731283,                       !- Density {kg/m3}
  1381.644,                               !- Specific Heat {J/kg-K}
  0.9,                                    !- Thermal Absorptance
  0.7,                                    !- Solar Absorptance
  0.8;                                    !- Visible Absorptance

OS:Material,
  {57a5392c-e221-480a-a231-f15f274e94f3}, !- Handle
  Acoustic Tile - 3/4 in.,                !- Name
  MediumRough,                            !- Roughness
  0.01905,                                !- Thickness {m}
  0.0576334643901672,                     !- Conductivity {W/m-K}
  288.332340731283,                       !- Density {kg/m3}
  795.492,                                !- Specific Heat {J/kg-K}
  0.9,                                    !- Thermal Absorptance
  0.7,                                    !- Solar Absorptance
  0.8;                                    !- Visible Absorptance

OS:Construction,
  {4326543c-f7fd-4fd5-8497-7cfbdabe4363}, !- Handle
  MetalFrameWallU062,                     !- Name
  ,                                       !- Surface Rendering Name
  {2ef1e919-30c0-4c4c-822f-b1283250ca56}, !- Layer 1
  {c06160d1-9b74-49ef-a644-1a3ca3c8ee85}, !- Layer 2
  {ccc2b89f-4f4c-4575-9341-27ecf9266154}, !- Layer 3
  {15d98c98-c314-43e7-84ee-4446b682ec97}; !- Layer 4

OS:Construction,
  {26875e13-7c86-426e-8c01-a71e4e700023}, !- Handle
  MetalFrameWallInterior,                 !- Name
  ,                                       !- Surface Rendering Name
  {b2ece838-6568-4a81-ab3c-1d99b9297889}, !- Layer 1
  {b05b72bc-7c15-4076-8340-ad303d304dad}, !- Layer 2
  {b2ece838-6568-4a81-ab3c-1d99b9297889}; !- Layer 3

OS:Material,
  {b05b72bc-7c15-4076-8340-ad303d304dad}, !- Handle
  Air - Metal Wall Framing - 16 or 24 in. OC 1, !- Name
  Smooth,                                 !- Roughness
  0.1397,                                 !- Thickness {m}
  1.22016793979183,                       !- Conductivity {W/m-K}
  1.28147706991681,                       !- Density {kg/m3}
  1004.832;                               !- Specific Heat {J/kg-K}

OS:Construction,
  {329e2994-ab54-4242-8aec-043d78003476}, !- Handle
  SteepNonresWoodFramingAndOtherRoofU034, !- Name
  ,                                       !- Surface Rendering Name
  {d4d051fc-1b8f-4c72-aaa0-9724e495b684}, !- Layer 1
  {bb8b6824-2a4a-4472-808b-1c199b33d957}; !- Layer 2

OS:Construction,
  {bfcc7f31-868e-4aad-b6e3-7bf3feecd1dd}, !- Handle
  OtherFloorU071,                         !- Name
  ,                                       !- Surface Rendering Name
  {e65830bd-53c5-4146-b3ad-29d3c6fd07d5}, !- Layer 1
  {369becd4-89b5-42a4-b64c-f8b7bd723975}, !- Layer 2
  {1b9cd02f-b3c7-4603-a859-ddae66f39bb3}; !- Layer 3

OS:Construction,
  {5610f9a6-420d-439a-87bb-7cd672474aaf}, !- Handle
  TypicalPlenumFloorInterior,             !- Name
  ,                                       !- Surface Rendering Name
  {57a5392c-e221-480a-a231-f15f274e94f3}; !- Layer 1

OS:WindowMaterial:SimpleGlazingSystem,
  {5f28795e-0eb6-4ad6-a03a-6a8bf806422b}, !- Handle
  Base_AllCZ_FixedWindowU36 Material,     !- Name
  2.04417480280085,                       !- U-Factor {W/m2-K}
  0.25,                                   !- Solar Heat Gain Coefficient
  0.42;                                   !- Visible Transmittance

OS:Construction,
  {ff97a92f-3fc9-4e06-b90b-f0495cccc818}, !- Handle
  Base_AllCZ_FixedWindowU36,              !- Name
  ,                                       !- Surface Rendering Name
  {5f28795e-0eb6-4ad6-a03a-6a8bf806422b}; !- Layer 1

OS:WindowMaterial:SimpleGlazingSystem,
  {84478964-0bc7-4a8e-ac16-174b115ebb3a}, !- Handle
  Glazed Door Material,                   !- Name
  2.55521850350106,                       !- U-Factor {W/m2-K}
  0.23,                                   !- Solar Heat Gain Coefficient
  0.17;                                   !- Visible Transmittance

OS:Construction,
  {30ebd235-2c64-48f4-8de5-94a3a538eb5b}, !- Handle
  Glazed Door,                            !- Name
  ,                                       !- Surface Rendering Name
  {84478964-0bc7-4a8e-ac16-174b115ebb3a}; !- Layer 1

OS:Curve:Biquadratic,
  {64d2a225-3bf2-4167-a743-475fa8ec4934}, !- Handle
  CoilClgDXQRatio_fTwbToadbSI,            !- Name
  0.86779,                                !- Coefficient1 Constant
  0.014245,                               !- Coefficient2 x
  0.000554,                               !- Coefficient3 x**2
  -0.007569,                              !- Coefficient4 y
  3.2e-005,                               !- Coefficient5 y**2
  -0.000191,                              !- Coefficient6 x*y
  13.89,                                  !- Minimum Value of x
  25,                                     !- Maximum Value of x
  23.89,                                  !- Minimum Value of y
  46.11,                                  !- Maximum Value of y
  0.77,                                   !- Minimum Curve Output
  1.29;                                   !- Maximum Curve Output

OS:Curve:Cubic,
  {2d0723a3-4e49-4d2a-933c-01ae37443901}, !- Handle
  CoilClgDXSEEREIRRatio_fQFrac,           !- Name
  1,                                      !- Coefficient1 Constant
  0,                                      !- Coefficient2 x
  0,                                      !- Coefficient3 x**2
  0,                                      !- Coefficient4 x**3
  0.7,                                    !- Minimum Value of x
  1,                                      !- Maximum Value of x
  1,                                      !- Minimum Curve Output
  1;                                      !- Maximum Curve Output

OS:Curve:Quadratic,
  {7ddb7323-62c6-4db2-9d90-901d79b91ed6}, !- Handle
  CoilClgDXSnglQRatio_fCFMRatio,          !- Name
  0.8,                                    !- Coefficient1 Constant
  0.2,                                    !- Coefficient2 x
  0,                                      !- Coefficient3 x**2
  0,                                      !- Minimum Value of x
  100,                                    !- Maximum Value of x