
OS:Version,
  {445584cd-4277-4c1c-97c5-98e2b861c073}, !- Handle
  2.7.2;                                  !- Version Identifier

OS:SimulationControl,
  {e84cf8ed-3dab-4ab3-8afe-f6a6c04620cd}, !- Handle
  ,                                       !- Do Zone Sizing Calculation
  ,                                       !- Do System Sizing Calculation
  ,                                       !- Do Plant Sizing Calculation
  No,                                     !- Run Simulation for Sizing Periods
  Yes,                                    !- Run Simulation for Weather File Run Periods
  ,                                       !- Loads Convergence Tolerance Value
  ,                                       !- Temperature Convergence Tolerance Value {deltaC}
  FullExterior,                           !- Solar Distribution
  50;                                     !- Maximum Number of Warmup Days

OS:YearDescription,
  {611ddb64-08dd-4bcf-866a-4aa4ee7ce1c4}, !- Handle
  2009,                                   !- Calendar Year
  ,                                       !- Day of Week for Start Day
  ;                                       !- Is Leap Year

OS:RunPeriod,
  {c532465b-40aa-490d-8432-7c37bf470fba}, !- Handle
  SANTA-ROSA_724957_CZ2010,               !- Name
  1,                                      !- Begin Month
  1,                                      !- Begin Day of Month
  12,                                     !- End Month
  31,                                     !- End Day of Month
  No,                                     !- Use Weather File Holidays and Special Days
  No,                                     !- Use Weather File Daylight Saving Period
  Yes,                                    !- Apply Weekend Holiday Rule
  ,                                       !- Use Weather File Rain Indicators
  ,                                       !- Use Weather File Snow Indicators
  ;                                       !- Number of Times Runperiod to be Repeated

OS:Site,
  {9d8e54e1-14eb-499b-b5fd-2525296c39a3}, !- Handle
  SANTA-ROSA(AWOS) Design_Conditions,     !- Name
  38.52,                                  !- Latitude {deg}
  -122.82,                                !- Longitude {deg}
  -8,                                     !- Time Zone {hr}
  38.1,                                   !- Elevation {m}
  ;                                       !- Terrain

OS:SizingPeriod:DesignDay,
  {291846ca-c66a-4790-8752-625dba255947}, !- Handle
  SANTA-ROSA(AWOS) Ann Htg 99.6% Condns DB, !- Name
  -1.6,                                   !- Maximum Dry-Bulb Temperature {C}
  0,                                      !- Daily Dry-Bulb Temperature Range {deltaC}
  -1.6,                                   !- Humidity Indicating Conditions at Maximum Dry-Bulb
  100869,                                 !- Barometric Pressure {Pa}
  0.7,                                    !- Wind Speed {m/s}
  292,                                    !- Wind Direction {deg}
  0,                                      !- Sky Clearness
  0,                                      !- Rain Indicator
  0,                                      !- Snow Indicator
  21,                                     !- Day of Month
  1,                                      !- Month
  WinterDesignDay,                        !- Day Type
  0,                                      !- Daylight Saving Time Indicator
  Wetbulb,                                !- Humidity Indicating Type
  ,                                       !- Humidity Indicating Day Schedule Name
  DefaultMultipliers,                     !- Dry-Bulb Temperature Range Modifier Type
  ,                                       !- Dry-Bulb Temperature Range Modifier Schedule Name
  ASHRAEClearSky;                         !- Solar Model Indicator

OS:SizingPeriod:DesignDay,
  {a9751be4-0ebb-4735-b9cd-12e8fcc656d8}, !- Handle
  SANTA-ROSA(AWOS) Ann Clg 0.4% Condns DB=>MCWB, !- Name
  35.5,                                   !- Maximum Dry-Bulb Temperature {C}
  16.1,                                   !- Daily Dry-Bulb Temperature Range {deltaC}
  19.7,                                   !- Humidity Indicating Conditions at Maximum Dry-Bulb
  100869,                                 !- Barometric Pressure {Pa}
  4.1,                                    !- Wind Speed {m/s}
  180,                                    !- Wind Direction {deg}
  0,                                      !- Sky Clearness
  0,                                      !- Rain Indicator
  0,                                      !- Snow Indicator
  21,                                     !- Day of Month
  7,                                      !- Month
  SummerDesignDay,                        !- Day Type
  0,                                      !- Daylight Saving Time Indicator
  Wetbulb,                                !- Humidity Indicating Type
  ,                                       !- Humidity Indicating Day Schedule Name
  DefaultMultipliers,                     !- Dry-Bulb Temperature Range Modifier Type
  ,                                       !- Dry-Bulb Temperature Range Modifier Schedule Name
  ASHRAETau,                              !- Solar Model Indicator
  ,                                       !- Beam Solar Day Schedule Name
  ,                                       !- Diffuse Solar Day Schedule Name
  0.357,                                  !- ASHRAE Taub {dimensionless}
  2.52;                                   !- ASHRAE Taud {dimensionless}

OS:SizingPeriod:DesignDay,
  {629fdee1-f2da-4b85-b24f-bf10b57e1c69}, !- Handle
  SANTA-ROSA(AWOS) Ann Clg 0.4% Condns DP=>MCDB, !- Name
  25,                                     !- Maximum Dry-Bulb Temperature {C}
  16.1,                                   !- Daily Dry-Bulb Temperature Range {deltaC}
  16.1,                                   !- Humidity Indicating Conditions at Maximum Dry-Bulb
  100869,                                 !- Barometric Pressure {Pa}
  3.4,                                    !- Wind Speed {m/s}
  180,                                    !- Wind Direction {deg}
  0,                                      !- Sky Clearness
  0,                                      !- Rain Indicator
  0,                                      !- Snow Indicator
  21,                                     !- Day of Month
  7,                                      !- Month
  SummerDesignDay,                        !- Day Type
  0,                                      !- Daylight Saving Time Indicator
  Dewpoint,                               !- Humidity Indicating Type
  ,                                       !- Humidity Indicating Day Schedule Name
  DefaultMultipliers,                     !- Dry-Bulb Temperature Range Modifier Type
  ,                                       !- Dry-Bulb Temperature Range Modifier Schedule Name
  ASHRAETau,                              !- Solar Model Indicator
  ,                                       !- Beam Solar Day Schedule Name
  ,                                       !- Diffuse Solar Day Schedule Name
  0.357,                                  !- ASHRAE Taub {dimensionless}
  2.52;                                   !- ASHRAE Taud {dimensionless}

OS:SizingPeriod:DesignDay,
  {50525d37-44f8-42ac-835e-922adec3ed26}, !- Handle
  SANTA-ROSA(AWOS) JUN Clg 0.4% Condns DB=>MCWB, !- Name
  37.1,                                   !- Maximum Dry-Bulb Temperature {C}
  15.2,                                   !- Daily Dry-Bulb Temperature Range {deltaC}
  19.1,                                   !- Humidity Indicating Conditions at Maximum Dry-Bulb
  100869,                                 !- Barometric Pressure {Pa}
  2.9,                                    !- Wind Speed {m/s}
  247,                                    !- Wind Direction {deg}
  0,                                      !- Sky Clearness
  0,                                      !- Rain Indicator
  0,                                      !- Snow Indicator
  21,                                     !- Day of Month
  6,                                      !- Month
  SummerDesignDay,                        !- Day Type
  0,                                      !- Daylight Saving Time Indicator
  Wetbulb,                                !- Humidity Indicating Type
  ,                                       !- Humidity Indicating Day Schedule Name
  DefaultMultipliers,                     !- Dry-Bulb Temperature Range Modifier Type
  ,                                       !- Dry-Bulb Temperature Range Modifier Schedule Name
  ASHRAETau,                              !- Solar Model Indicator
  ,                                       !- Beam Solar Day Schedule Name
  ,                                       !- Diffuse Solar Day Schedule Name
  0.346,                                  !- ASHRAE Taub {dimensionless}
  2.568;                                  !- ASHRAE Taud {dimensionless}

OS:SizingPeriod:DesignDay,
  {32f5086c-acc0-48e2-bf0d-747a4e931e64}, !- Handle
  SANTA-ROSA(AWOS) JUL Clg 0.4% Condns DB=>MCWB, !- Name
  37.8,                                   !- Maximum Dry-Bulb Temperature {C}
  16.1,                                   !- Daily Dry-Bulb Temperature Range {deltaC}
  21,                                     !- Humidity Indicating Conditions at Maximum Dry-Bulb
  100869,                                 !- Barometric Pressure {Pa}
  4.2,                                    !- Wind Speed {m/s}
  180,                                    !- Wind Direction {deg}
  0,                                      !- Sky Clearness
  0,                                      !- Rain Indicator
  0,                                      !- Snow Indicator
  21,                                     !- Day of Month
  7,                                      !- Month
  SummerDesignDay,                        !- Day Type
  0,                                      !- Daylight Saving Time Indicator
  Wetbulb,                                !- Humidity Indicating Type
  ,                                       !- Humidity Indicating Day Schedule Name
  DefaultMultipliers,                     !- Dry-Bulb Temperature Range Modifier Type
  ,                                       !- Dry-Bulb Temperature Range Modifier Schedule Name
  ASHRAETau,                              !- Solar Model Indicator
  ,                                       !- Beam Solar Day Schedule Name
  ,                                       !- Diffuse Solar Day Schedule Name
  0.357,                                  !- ASHRAE Taub {dimensionless}
  2.52;                                   !- ASHRAE Taud {dimensionless}

OS:SizingPeriod:DesignDay,
  {2e14f3bf-0271-488a-ac7e-f830c99dfb86}, !- Handle
  SANTA-ROSA(AWOS) AUG Clg 0.4% Condns DB=>MCWB, !- Name
  36.7,                                   !- Maximum Dry-Bulb Temperature {C}
  17.3,                                   !- Daily Dry-Bulb Temperature Range {deltaC}
  20.1,                                   !- Humidity Indicating Conditions at Maximum Dry-Bulb
  100869,                                 !- Barometric Pressure {Pa}
  4.8,                                    !- Wind Speed {m/s}
  180,                                    !- Wind Direction {deg}
  0,                                      !- Sky Clearness
  0,                                      !- Rain Indicator
  0,                                      !- Snow Indicator
  21,                                     !- Day of Month
  8,                                      !- Month
  SummerDesignDay,                        !- Day Type
  0,                                      !- Daylight Saving Time Indicator
  Wetbulb,                                !- Humidity Indicating Type
  ,                                       !- Humidity Indicating Day Schedule Name
  DefaultMultipliers,                     !- Dry-Bulb Temperature Range Modifier Type
  ,                                       !- Dry-Bulb Temperature Range Modifier Schedule Name
  ASHRAETau,                              !- Solar Model Indicator
  ,                                       !- Beam Solar Day Schedule Name
  ,                                       !- Diffuse Solar Day Schedule Name
  0.356,                                  !- ASHRAE Taub {dimensionless}
  2.534;                                  !- ASHRAE Taud {dimensionless}

OS:SizingPeriod:DesignDay,
  {bf6c70d9-cf12-4921-b511-ae06f002fc6f}, !- Handle
  SANTA-ROSA(AWOS) SEP Clg 0.4% Condns DB=>MCWB, !- Name
  36.7,                                   !- Maximum Dry-Bulb Temperature {C}
  14.8,                                   !- Daily Dry-Bulb Temperature Range {deltaC}
  22.1,                                   !- Humidity Indicating Conditions at Maximum Dry-Bulb
  100869,                                 !- Barometric Pressure {Pa}
  3.7,                                    !- Wind Speed {m/s}
  180,                                    !- Wind Direction {deg}
  0,                                      !- Sky Clearness
  0,                                      !- Rain Indicator
  0,                                      !- Snow Indicator
  21,                                     !- Day of Month
  9,                                      !- Month
  SummerDesignDay,                        !- Day Type
  0,                                      !- Daylight Saving Time Indicator
  Wetbulb,                                !- Humidity Indicating Type
  ,                                       !- Humidity Indicating Day Schedule Name
  DefaultMultipliers,                     !- Dry-Bulb Temperature Range Modifier Type
  ,                                       !- Dry-Bulb Temperature Range Modifier Schedule Name
  ASHRAETau,                              !- Solar Model Indicator
  ,                                       !- Beam Solar Day Schedule Name
  ,                                       !- Diffuse Solar Day Schedule Name
  0.345,                                  !- ASHRAE Taub {dimensionless}
  2.577;                                  !- ASHRAE Taud {dimensionless}

OS:SizingPeriod:DesignDay,
  {d69b6cb6-bd03-4a17-a974-0f30d5db3d84}, !- Handle
  SANTA-ROSA(AWOS) OCT Clg 0.4% Condns DB=>MCWB, !- Name
  33.3,                                   !- Maximum Dry-Bulb Temperature {C}
  14.5,                                   !- Daily Dry-Bulb Temperature Range {deltaC}
  16.8,                                   !- Humidity Indicating Conditions at Maximum Dry-Bulb
  100869,                                 !- Barometric Pressure {Pa}
  2.3,                                    !- Wind Speed {m/s}
  180,                                    !- Wind Direction {deg}
  0,                                      !- Sky Clearness
  0,                                      !- Rain Indicator
  0,                                      !- Snow Indicator
  21,                                     !- Day of Month
  10,                                     !- Month
  SummerDesignDay,                        !- Day Type
  0,                                      !- Daylight Saving Time Indicator
  Wetbulb,                                !- Humidity Indicating Type
  ,                                       !- Humidity Indicating Day Schedule Name
  DefaultMultipliers,                     !- Dry-Bulb Temperature Range Modifier Type
  ,                                       !- Dry-Bulb Temperature Range Modifier Schedule Name
  ASHRAETau,                              !- Solar Model Indicator
  ,                                       !- Beam Solar Day Schedule Name
  ,                                       !- Diffuse Solar Day Schedule Name
  0.33,                                   !- ASHRAE Taub {dimensionless}
  2.602;                                  !- ASHRAE Taud {dimensionless}

OS:SizingPeriod:DesignDay,
  {b4062e25-1f3e-43f4-a381-77dae5e0c3d7}, !- Handle
  SANTA-ROSA(AWOS) NOV Clg 0.4% Condns DB=>MCWB, !- Name
  26.1,                                   !- Maximum Dry-Bulb Temperature {C}
  7.5,                                    !- Daily Dry-Bulb Temperature Range {deltaC}
  16.3,                                   !- Humidity Indicating Conditions at Maximum Dry-Bulb
  100869,                                 !- Barometric Pressure {Pa}
  3,                                      !- Wind Speed {m/s}
  180,                                    !- Wind Direction {deg}
  0,                                      !- Sky Clearness
  0,                                      !- Rain Indicator
  0,                                      !- Snow Indicator
  21,                                     !- Day of Month
  11,                                     !- Month
  SummerDesignDay,                        !- Day Type
  0,                                      !- Daylight Saving Time Indicator
  Wetbulb,                                !- Humidity Indicating Type
  ,                                       !- Humidity Indicating Day Schedule Name
  DefaultMultipliers,                     !- Dry-Bulb Temperature Range Modifier Type
  ,                                       !- Dry-Bulb Temperature Range Modifier Schedule Name
  ASHRAETau,                              !- Solar Model Indicator
  ,                                       !- Beam Solar Day Schedule Name
  ,                                       !- Diffuse Solar Day Schedule Name
  0.32,                                   !- ASHRAE Taub {dimensionless}
  2.601;                                  !- ASHRAE Taud {dimensionless}

OS:WeatherFile,
  {027b0521-c9b2-4979-889b-b9b8f80aa42a}, !- Handle
  SANTA-ROSA(AWOS),                       !- City
  -,                                      !- State Province Region
  USA,                                    !- Country
  Custom-724957,                          !- Data Source
  724957,                                 !- WMO Number
  38.51,                                  !- Latitude {deg}
  -122.81,                                !- Longitude {deg}
  -8,                                     !- Time Zone {hr}
  45,                                     !- Elevation {m}
  file:///C:/Users/agoyal/Documents/CBECC-Com 2019 Data/EPW/SANTA-ROSA_724957_CZ2010.epw, !- Url
  CD66CAEC;                               !- Checksum

OS:Sizing:Parameters,
  {519d4602-8a8e-477c-bb49-054032d49297}, !- Handle
  1,                                      !- Heating Sizing Factor
  1;                                      !- Cooling Sizing Factor

OS:Material,
  {0880dd01-9508-4a76-b640-91aa070f9c52}, !- Handle
  Gypsum Board - 1/2 in.,                 !- Name
  Smooth,                                 !- Roughness
  0.0127,                                 !- Thickness {m}
  0.158656446866265,                      !- Conductivity {W/m-K}
  640.738534958406,                       !- Density {kg/m3}
  1130.436,                               !- Specific Heat {J/kg-K}
  0.9,                                    !- Thermal Absorptance
  0.7,                                    !- Solar Absorptance
  0.8;                                    !- Visible Absorptance

OS:Material,
  {9291f34a-0a78-4848-9d8b-9674af5f0bd4}, !- Handle
  Gypsum Board - 5/8 in.,                 !- Name
  MediumRough,                            !- Roughness
  0.016002,                               !- Thickness {m}
  0.158656446866265,                      !- Conductivity {W/m-K}
  640.738534958406,                       !- Density {kg/m3}
  1130.436,                               !- Specific Heat {J/kg-K}
  0.9,                                    !- Thermal Absorptance
  0.7,                                    !- Solar Absorptance
  0.8;                                    !- Visible Absorptance

OS:Material,
  {c9832258-9605-4e01-b365-eb457d51c1fd}, !- Handle
  Stucco - 7/8 in.,                       !- Name
  MediumRough,                            !- Roughness
  0.022352,                               !- Thickness {m}
  0.700947539880412,                      !- Conductivity {W/m-K}
  1855.09824333832,                       !- Density {kg/m3}
  837.36,                                 !- Specific Heat {J/kg-K}
  0.9,                                    !- Thermal Absorptance
  0.7,                                    !- Solar Absorptance
  0.8;                                    !- Visible Absorptance

OS:Material,
  {fccc424e-6e89-4d9e-b334-c96af0edea15}, !- Handle
  Carpet - 3/4 in.,                       !- Name
  Smooth,                                 !- Roughness
  0.01905,                                !- Thickness {m}
  0.0455183217255675,                     !- Conductivity {W/m-K}
  288.332340731283,                       !- Density {kg/m3}
  1381.644,                               !- Specific Heat {J/kg-K}
  0.9,                                    !- Thermal Absorptance
  0.7,                                    !- Solar Absorptance
  0.8;                                    !- Visible Absorptance

OS:Material,
  {0c3dbb01-8724-49d0-b4d7-56497def0f95}, !- Handle
  Plywood - 5/8 in.,                      !- Name
  Smooth,                                 !- Roughness
  0.016002,                               !- Thickness {m}
  0.115440002246971,                      !- Conductivity {W/m-K}
  480.553901218804,                       !- Density {kg/m3}
  1884.06;                                !- Specific Heat {J/kg-K}

OS:Material,
  {4f63302f-265f-41a6-bc42-24205e0f874b}, !- Handle
  Concrete - 140 lb/ft3 - 4 in.,          !- Name
  Smooth,                                 !- Roughness
  0.1016,                                 !- Thickness {m}
  1.95140333633374,                       !- Conductivity {W/m-K}
  2239.06081041215,                       !- Density {kg/m3}
  921.096;                                !- Specific Heat {J/kg-K}

OS:Material,
  {33ba3b8f-9623-45c6-814a-86ba4cb55a92}, !- Handle
  Compliance Insulation R0.20,            !- Name
  Smooth,                                 !- Roughness
  0.000810768,                            !- Thickness {m}
  0.0230187710627394,                     !- Conductivity {W/m-K}
  16.0184633739601,                       !- Density {kg/m3}
  1130.436;                               !- Specific Heat {J/kg-K}

OS:Material,
  {68cabf30-2751-43d5-a139-2a7075f4d081}, !- Handle
  Compliance Insulation R0.10,            !- Name
  Smooth,                                 !- Roughness
  0.000405384,                            !- Thickness {m}
  0.0230187710627394,                     !- Conductivity {W/m-K}
  16.0184633739601,                       !- Density {kg/m3}
  1130.436;                               !- Specific Heat {J/kg-K}

OS:Material,
  {9e6ef2e0-0041-47fd-8a9e-a80b0218a329}, !- Handle
  Concrete - Solid Grout - 115 lb/ft3 - 8 in., !- Name
  Smooth,                                 !- Roughness
  0.2032,                                 !- Thickness {m}
  1.31570449337553,                       !- Conductivity {W/m-K}
  1858.14175137938,                       !- Density {kg/m3}
  837.36;                                 !- Specific Heat {J/kg-K}

OS:Material,
  {55e05ea5-3a3b-45e1-9a99-7907040ea8d4}, !- Handle
  Compliance Insulation R13.99,           !- Name
  Smooth,                                 !- Roughness
  0.05671312,                             !- Thickness {m}
  0.0230187710627394,                     !- Conductivity {W/m-K}
  16.0184633739601,                       !- Density {kg/m3}
  1130.436;                               !- Specific Heat {J/kg-K}

OS:Material,
  {8e4be2ca-2d61-472b-a1c4-5dd1dc4fe9ec}, !- Handle
  Air - Metal Wall Framing - 16 or 24 in. OC, !- Name
  Smooth,                                 !- Roughness
  0.1397,                                 !- Thickness {m}
  1.22016793979183,                       !- Conductivity {W/m-K}
  1.28147706991681,                       !- Density {kg/m3}
  1004.832;                               !- Specific Heat {J/kg-K}

OS:Material,
  {2ebf8864-ca7e-46c5-92c3-9eb7504a7606}, !- Handle
  Compliance Insulation R10.06,           !- Name
  Smooth,                                 !- Roughness
  0.040781732,                            !- Thickness {m}
  0.0230187710627394,                     !- Conductivity {W/m-K}
  16.0184633739601,                       !- Density {kg/m3}
  1130.436;                               !- Specific Heat {J/kg-K}

OS:Material,
  {4ac4d6b2-3a2b-4931-8fab-c25df011916c}, !- Handle
  Compliance Insulation R2.00,            !- Name
  Smooth,                                 !- Roughness
  0.00810768,                             !- Thickness {m}
  0.0230187710627394,                     !- Conductivity {W/m-K}
  16.0184633739601,                       !- Density {kg/m3}
  1130.436;                               !- Specific Heat {J/kg-K}

OS:Material,
  {d0d51716-ef75-450e-959c-18dc017c39be}, !- Handle
  Metal Standing Seam - 1/16 in.,         !- Name
  MediumRough,                            !- Roughness
  0.0015875,                              !- Thickness {m}
  2.21534037295537,                       !- Conductivity {W/m-K}
  7820.53418843482,                       !- Density {kg/m3}
  502.416,                                !- Specific Heat {J/kg-K}
  0.85,                                   !- Thermal Absorptance
  0.37,                                   !- Solar Absorptance
  0.85;                                   !- Visible Absorptance

OS:Material,
  {b7b7a9b0-41e2-469f-aa04-9a5ca0dad418}, !- Handle
  Compliance Insulation R34.93,           !- Name
  Smooth,                                 !- Roughness
  0.141600682,                            !- Thickness {m}
  0.0230187710627394,                     !- Conductivity {W/m-K}
  16.0184633739601,                       !- Density {kg/m3}
  1130.436,                               !- Specific Heat {J/kg-K}
  0.9,                                    !- Thermal Absorptance
  0.7,                                    !- Solar Absorptance
  0.8;                                    !- Visible Absorptance

OS:Material,
  {cece0a83-bb65-47d7-a24d-83d3e12f3e32}, !- Handle
  Compliance Insulation R28.63,           !- Name
  Smooth,                                 !- Roughness
  0.11606149,                             !- Thickness {m}
  0.0230187710627394,                     !- Conductivity {W/m-K}
  16.0184633739601,                       !- Density {kg/m3}
  1130.436,                               !- Specific Heat {J/kg-K}
  0.9,                                    !- Thermal Absorptance
  0.7,                                    !- Solar Absorptance
  0.8;                                    !- Visible Absorptance

OS:Material,
  {70ae5dbd-ca34-4242-9029-cdc7332c3ecc}, !- Handle
  Compliance Insulation R21.39,           !- Name
  MediumRough,                            !- Roughness
  0.086711536,                            !- Thickness {m}
  0.0230187710627394,                     !- Conductivity {W/m-K}
  16.0184633739601,                       !- Density {kg/m3}
  1130.436,                               !- Specific Heat {J/kg-K}
  0.9,                                    !- Thermal Absorptance
  0.7,                                    !- Solar Absorptance
  0.8;                                    !- Visible Absorptance

OS:Material,
  {559931a7-4be8-4de3-a8b4-1ae8724bb330}, !- Handle
  Metal Deck - 1/16 in.,                  !- Name
  MediumRough,                            !- Roughness
  0.0015875,                              !- Thickness {m}
  45.3452482589303,                       !- Conductivity {W/m-K}
  7820.53418843482,                       !- Density {kg/m3}
  502.416,                                !- Specific Heat {J/kg-K}
  0.9,                                    !- Thermal Absorptance
  0.7,                                    !- Solar Absorptance
  0.8;                                    !- Visible Absorptance

OS:Construction,
  {a568c937-874a-4c2b-ac3e-f1e95e8ae4f3}, !- Handle
  MetalFrameWallU062,                     !- Name
  ,                                       !- Surface Rendering Name
  {c9832258-9605-4e01-b365-eb457d51c1fd}, !- Layer 1
  {55e05ea5-3a3b-45e1-9a99-7907040ea8d4}, !- Layer 2
  {8e4be2ca-2d61-472b-a1c4-5dd1dc4fe9ec}, !- Layer 3
  {0880dd01-9508-4a76-b640-91aa070f9c52}; !- Layer 4

OS:Construction,
  {7403440b-f1a9-46ab-a729-3ba6331ce74e}, !- Handle
  MetalFrameWallU069,                     !- Name
  ,                                       !- Surface Rendering Name
  {a89fe345-ff5f-4bdd-bb1e-3b6ec42a93ed}, !- Layer 1
  {2ebf8864-ca7e-46c5-92c3-9eb7504a7606}, !- Layer 2
  {4ac4d6b2-3a2b-4931-8fab-c25df011916c}, !- Layer 3
  {33ba3b8f-9623-45c6-814a-86ba4cb55a92}, !- Layer 4
  {68cabf30-2751-43d5-a139-2a7075f4d081}, !- Layer 5
  {c2662323-9417-4b79-8308-5cf0383954ec}, !- Layer 6
  {97204d4d-f828-4e51-bbc5-79c3ccf907b9}; !- Layer 7

OS:Material,
  {a89fe345-ff5f-4bdd-bb1e-3b6ec42a93ed}, !- Handle
  Stucco - 7/8 in. 1,                     !- Name
  MediumRough,                            !- Roughness
  0.022352,                               !- Thickness {m}
  0.700947539880412,                      !- Conductivity {W/m-K}
  1855.09824333832,                       !- Density {kg/m3}
  837.36,                                 !- Specific Heat {J/kg-K}
  0.9,                                    !- Thermal Absorptance
  0.7,                                    !- Solar Absorptance
  0.8;                                    !- Visible Absorptance

OS:Material,
  {c2662323-9417-4b79-8308-5cf0383954ec}, !- Handle
  Air - Metal Wall Framing - 16 or 24 in. OC 1, !- Name
  Smooth,                                 !- Roughness
  0.1397,                                 !- Thickness {m}
  1.22016793979183,                       !- Conductivity {W/m-K}
  1.28147706991681,                       !- Density {kg/m3}
  1004.832;                               !- Specific Heat {J/kg-K}

OS:Material,
  {97204d4d-f828-4e51-bbc5-79c3ccf907b9}, !- Handle
  Gypsum Board - 1/2 in. 1,               !- Name