
OS:Version,
  {1bcf1a88-a581-470b-812f-2c215a913508}, !- Handle
  2.7.2;                                  !- Version Identifier

OS:SimulationControl,
  {3abb793a-c98d-4ad1-8f6b-569b13383996}, !- Handle
  ,                                       !- Do Zone Sizing Calculation
  ,                                       !- Do System Sizing Calculation
  ,                                       !- Do Plant Sizing Calculation
  No,                                     !- Run Simulation for Sizing Periods
  Yes,                                    !- Run Simulation for Weather File Run Periods
  ,                                       !- Loads Convergence Tolerance Value
  ,                                       !- Temperature Convergence Tolerance Value {deltaC}
  FullExterior,                           !- Solar Distribution
  50;                                     !- Maximum Number of Warmup Days

OS:YearDescription,
  {44713b17-1cfd-4eeb-bf94-9c03d3d43b52}, !- Handle
  2009,                                   !- Calendar Year
  ,                                       !- Day of Week for Start Day
  ;                                       !- Is Leap Year

OS:RunPeriod,
  {cdb9226e-368d-40b2-9be5-1eb28d4d1d57}, !- Handle
  CTZ14S22A,                              !- Name
  1,                                      !- Begin Month
  1,                                      !- Begin Day of Month
  12,                                     !- End Month
  31,                                     !- End Day of Month
  No,                                     !- Use Weather File Holidays and Special Days
  No,                                     !- Use Weather File Daylight Saving Period
  Yes,                                    !- Apply Weekend Holiday Rule
  ,                                       !- Use Weather File Rain Indicators
  ,                                       !- Use Weather File Snow Indicators
  ;                                       !- Number of Times Runperiod to be Repeated

OS:Site,
  {d2138399-613e-4c31-ace3-ec25255a6f5f}, !- Handle
  CA_PALMDALE-AP_USA Design_Conditions,   !- Name
  34.63,                                  !- Latitude {deg}
  -118.08,                                !- Longitude {deg}
  -8,                                     !- Time Zone {hr}
  786.9936,                               !- Elevation {m}
  ;                                       !- Terrain

OS:SizingPeriod:DesignDay,
  {bd13d6be-4bfa-4c92-8ec4-00ec3db7f228}, !- Handle
  CA_PALMDALE-AP Ann Htg 99.6% Condns DB, !- Name
  -3.8,                                   !- Maximum Dry-Bulb Temperature {C}
  0,                                      !- Daily Dry-Bulb Temperature Range {deltaC}
  -3.8,                                   !- Humidity Indicating Conditions at Maximum Dry-Bulb
  92221,                                  !- Barometric Pressure {Pa}
  1.5,                                    !- Wind Speed {m/s}
  200,                                    !- Wind Direction {deg}
  0,                                      !- Sky Clearness
  0,                                      !- Rain Indicator
  0,                                      !- Snow Indicator
  21,                                     !- Day of Month
  12,                                     !- Month
  WinterDesignDay,                        !- Day Type
  0,                                      !- Daylight Saving Time Indicator
  Wetbulb,                                !- Humidity Indicating Type
  ,                                       !- Humidity Indicating Day Schedule Name
  DefaultMultipliers,                     !- Dry-Bulb Temperature Range Modifier Type
  ,                                       !- Dry-Bulb Temperature Range Modifier Schedule Name
  ASHRAEClearSky;                         !- Solar Model Indicator

OS:SizingPeriod:DesignDay,
  {f2745bd2-e569-4cc2-a18a-d804e21d6493}, !- Handle
  CA_PALMDALE-AP Ann Clg .4% Condns DB=>MWB, !- Name
  38.9,                                   !- Maximum Dry-Bulb Temperature {C}
  16,                                     !- Daily Dry-Bulb Temperature Range {deltaC}
  18.7,                                   !- Humidity Indicating Conditions at Maximum Dry-Bulb
  92221,                                  !- Barometric Pressure {Pa}
  6,                                      !- Wind Speed {m/s}
  250,                                    !- Wind Direction {deg}
  0,                                      !- Sky Clearness
  0,                                      !- Rain Indicator
  0,                                      !- Snow Indicator
  21,                                     !- Day of Month
  7,                                      !- Month
  SummerDesignDay,                        !- Day Type
  0,                                      !- Daylight Saving Time Indicator
  Wetbulb,                                !- Humidity Indicating Type
  ,                                       !- Humidity Indicating Day Schedule Name
  DefaultMultipliers,                     !- Dry-Bulb Temperature Range Modifier Type
  ,                                       !- Dry-Bulb Temperature Range Modifier Schedule Name
  ASHRAETau,                              !- Solar Model Indicator
  ,                                       !- Beam Solar Day Schedule Name
  ,                                       !- Diffuse Solar Day Schedule Name
  0.365,                                  !- ASHRAE Taub {dimensionless}
  2.393;                                  !- ASHRAE Taud {dimensionless}

OS:SizingPeriod:DesignDay,
  {9663e002-1c52-41f3-930c-f27cec8cedaf}, !- Handle
  CA_PALMDALE-AP Ann Clg .4% Condns WB=>MDB, !- Name
  34.6,                                   !- Maximum Dry-Bulb Temperature {C}
  16,                                     !- Daily Dry-Bulb Temperature Range {deltaC}
  21.1,                                   !- Humidity Indicating Conditions at Maximum Dry-Bulb
  92221,                                  !- Barometric Pressure {Pa}
  6,                                      !- Wind Speed {m/s}
  250,                                    !- Wind Direction {deg}
  0,                                      !- Sky Clearness
  0,                                      !- Rain Indicator
  0,                                      !- Snow Indicator
  21,                                     !- Day of Month
  7,                                      !- Month
  SummerDesignDay,                        !- Day Type
  0,                                      !- Daylight Saving Time Indicator
  Wetbulb,                                !- Humidity Indicating Type
  ,                                       !- Humidity Indicating Day Schedule Name
  DefaultMultipliers,                     !- Dry-Bulb Temperature Range Modifier Type
  ,                                       !- Dry-Bulb Temperature Range Modifier Schedule Name
  ASHRAETau,                              !- Solar Model Indicator
  ,                                       !- Beam Solar Day Schedule Name
  ,                                       !- Diffuse Solar Day Schedule Name
  0.365,                                  !- ASHRAE Taub {dimensionless}
  2.393;                                  !- ASHRAE Taud {dimensionless}

OS:SizingPeriod:DesignDay,
  {94bc1577-8cd2-4fe1-8c6b-175d0e1de61a}, !- Handle
  CA_PALMDALE-AP Ann Clg .4% Condns DP=>MDB, !- Name
  27.2,                                   !- Maximum Dry-Bulb Temperature {C}
  16,                                     !- Daily Dry-Bulb Temperature Range {deltaC}
  17,                                     !- Humidity Indicating Conditions at Maximum Dry-Bulb
  92221,                                  !- Barometric Pressure {Pa}
  6,                                      !- Wind Speed {m/s}
  250,                                    !- Wind Direction {deg}
  0,                                      !- Sky Clearness
  0,                                      !- Rain Indicator
  0,                                      !- Snow Indicator
  21,                                     !- Day of Month
  7,                                      !- Month
  SummerDesignDay,                        !- Day Type
  0,                                      !- Daylight Saving Time Indicator
  Dewpoint,                               !- Humidity Indicating Type
  ,                                       !- Humidity Indicating Day Schedule Name
  DefaultMultipliers,                     !- Dry-Bulb Temperature Range Modifier Type
  ,                                       !- Dry-Bulb Temperature Range Modifier Schedule Name
  ASHRAETau,                              !- Solar Model Indicator
  ,                                       !- Beam Solar Day Schedule Name
  ,                                       !- Diffuse Solar Day Schedule Name
  0.365,                                  !- ASHRAE Taub {dimensionless}
  2.393;                                  !- ASHRAE Taud {dimensionless}

OS:SizingPeriod:DesignDay,
  {d7ae7cb0-daf2-43b7-ab1f-8865bb6dd829}, !- Handle
  CA_PALMDALE-AP June .4% Condns DB=>MCWB, !- Name
  38.9,                                   !- Maximum Dry-Bulb Temperature {C}
  16.1,                                   !- Daily Dry-Bulb Temperature Range {deltaC}
  17.7,                                   !- Humidity Indicating Conditions at Maximum Dry-Bulb
  92221,                                  !- Barometric Pressure {Pa}
  5.6,                                    !- Wind Speed {m/s}
  250,                                    !- Wind Direction {deg}
  0,                                      !- Sky Clearness
  0,                                      !- Rain Indicator
  0,                                      !- Snow Indicator
  21,                                     !- Day of Month
  6,                                      !- Month
  SummerDesignDay,                        !- Day Type
  0,                                      !- Daylight Saving Time Indicator
  Wetbulb,                                !- Humidity Indicating Type
  ,                                       !- Humidity Indicating Day Schedule Name
  DefaultMultipliers,                     !- Dry-Bulb Temperature Range Modifier Type
  ,                                       !- Dry-Bulb Temperature Range Modifier Schedule Name
  ASHRAETau,                              !- Solar Model Indicator
  ,                                       !- Beam Solar Day Schedule Name
  ,                                       !- Diffuse Solar Day Schedule Name
  0.345,                                  !- ASHRAE Taub {dimensionless}
  2.401;                                  !- ASHRAE Taud {dimensionless}

OS:SizingPeriod:DesignDay,
  {55ae2832-c92f-41f2-9e2f-21631bac1901}, !- Handle
  CA_PALMDALE-AP July .4% Condns DB=>MCWB, !- Name
  41.4,                                   !- Maximum Dry-Bulb Temperature {C}
  16,                                     !- Daily Dry-Bulb Temperature Range {deltaC}
  19.8,                                   !- Humidity Indicating Conditions at Maximum Dry-Bulb
  92221,                                  !- Barometric Pressure {Pa}
  4.9,                                    !- Wind Speed {m/s}
  250,                                    !- Wind Direction {deg}
  0,                                      !- Sky Clearness
  0,                                      !- Rain Indicator
  0,                                      !- Snow Indicator
  21,                                     !- Day of Month
  7,                                      !- Month
  SummerDesignDay,                        !- Day Type
  0,                                      !- Daylight Saving Time Indicator
  Wetbulb,                                !- Humidity Indicating Type
  ,                                       !- Humidity Indicating Day Schedule Name
  DefaultMultipliers,                     !- Dry-Bulb Temperature Range Modifier Type
  ,                                       !- Dry-Bulb Temperature Range Modifier Schedule Name
  ASHRAETau,                              !- Solar Model Indicator
  ,                                       !- Beam Solar Day Schedule Name
  ,                                       !- Diffuse Solar Day Schedule Name
  0.365,                                  !- ASHRAE Taub {dimensionless}
  2.393;                                  !- ASHRAE Taud {dimensionless}

OS:SizingPeriod:DesignDay,
  {1c9b6493-6d0f-4286-b710-17633efb8cb9}, !- Handle
  CA_PALMDALE-AP August .4% Condns DB=>MCWB, !- Name
  40.9,                                   !- Maximum Dry-Bulb Temperature {C}
  16.6,                                   !- Daily Dry-Bulb Temperature Range {deltaC}
  20.6,                                   !- Humidity Indicating Conditions at Maximum Dry-Bulb
  92221,                                  !- Barometric Pressure {Pa}
  4.4,                                    !- Wind Speed {m/s}
  250,                                    !- Wind Direction {deg}
  0,                                      !- Sky Clearness
  0,                                      !- Rain Indicator
  0,                                      !- Snow Indicator
  21,                                     !- Day of Month
  8,                                      !- Month
  SummerDesignDay,                        !- Day Type
  0,                                      !- Daylight Saving Time Indicator
  Wetbulb,                                !- Humidity Indicating Type
  ,                                       !- Humidity Indicating Day Schedule Name
  DefaultMultipliers,                     !- Dry-Bulb Temperature Range Modifier Type
  ,                                       !- Dry-Bulb Temperature Range Modifier Schedule Name
  ASHRAETau,                              !- Solar Model Indicator
  ,                                       !- Beam Solar Day Schedule Name
  ,                                       !- Diffuse Solar Day Schedule Name
  0.347,                                  !- ASHRAE Taub {dimensionless}
  2.42;                                   !- ASHRAE Taud {dimensionless}

OS:SizingPeriod:DesignDay,
  {fa6fc81d-57d8-46d4-9cbc-69032f3c90b1}, !- Handle
  CA_PALMDALE-AP September .4% Condns DB=>MCWB, !- Name
  37.9,                                   !- Maximum Dry-Bulb Temperature {C}
  17.2,                                   !- Daily Dry-Bulb Temperature Range {deltaC}
  18.3,                                   !- Humidity Indicating Conditions at Maximum Dry-Bulb
  92221,                                  !- Barometric Pressure {Pa}
  3.8,                                    !- Wind Speed {m/s}
  250,                                    !- Wind Direction {deg}
  0,                                      !- Sky Clearness
  0,                                      !- Rain Indicator
  0,                                      !- Snow Indicator
  21,                                     !- Day of Month
  9,                                      !- Month
  SummerDesignDay,                        !- Day Type
  0,                                      !- Daylight Saving Time Indicator
  Wetbulb,                                !- Humidity Indicating Type
  ,                                       !- Humidity Indicating Day Schedule Name
  DefaultMultipliers,                     !- Dry-Bulb Temperature Range Modifier Type
  ,                                       !- Dry-Bulb Temperature Range Modifier Schedule Name
  ASHRAETau,                              !- Solar Model Indicator
  ,                                       !- Beam Solar Day Schedule Name
  ,                                       !- Diffuse Solar Day Schedule Name
  0.334,                                  !- ASHRAE Taub {dimensionless}
  2.453;                                  !- ASHRAE Taud {dimensionless}

OS:SizingPeriod:DesignDay,
  {4767f52e-5fe7-4307-a1bf-9b7b9d08695b}, !- Handle
  CA_PALMDALE-AP October .4% Condns DB=>MCWB, !- Name
  33.4,                                   !- Maximum Dry-Bulb Temperature {C}
  16,                                     !- Daily Dry-Bulb Temperature Range {deltaC}
  15.1,                                   !- Humidity Indicating Conditions at Maximum Dry-Bulb
  92221,                                  !- Barometric Pressure {Pa}
  3.8,                                    !- Wind Speed {m/s}
  250,                                    !- Wind Direction {deg}
  0,                                      !- Sky Clearness
  0,                                      !- Rain Indicator
  0,                                      !- Snow Indicator
  21,                                     !- Day of Month
  10,                                     !- Month
  SummerDesignDay,                        !- Day Type
  0,                                      !- Daylight Saving Time Indicator
  Wetbulb,                                !- Humidity Indicating Type
  ,                                       !- Humidity Indicating Day Schedule Name
  DefaultMultipliers,                     !- Dry-Bulb Temperature Range Modifier Type
  ,                                       !- Dry-Bulb Temperature Range Modifier Schedule Name
  ASHRAETau,                              !- Solar Model Indicator
  ,                                       !- Beam Solar Day Schedule Name
  ,                                       !- Diffuse Solar Day Schedule Name
  0.321,                                  !- ASHRAE Taub {dimensionless}
  2.468;                                  !- ASHRAE Taud {dimensionless}

OS:SizingPeriod:DesignDay,
  {08fdde77-62f9-4b7e-a53e-84f6814c15db}, !- Handle
  CA_PALMDALE-AP November .4% Condns DB=>MCWB, !- Name
  27.1,                                   !- Maximum Dry-Bulb Temperature {C}
  15.3,                                   !- Daily Dry-Bulb Temperature Range {deltaC}
  11.5,                                   !- Humidity Indicating Conditions at Maximum Dry-Bulb
  92221,                                  !- Barometric Pressure {Pa}
  3.3,                                    !- Wind Speed {m/s}
  250,                                    !- Wind Direction {deg}
  0,                                      !- Sky Clearness
  0,                                      !- Rain Indicator
  0,                                      !- Snow Indicator
  21,                                     !- Day of Month
  11,                                     !- Month
  SummerDesignDay,                        !- Day Type
  0,                                      !- Daylight Saving Time Indicator
  Wetbulb,                                !- Humidity Indicating Type
  ,                                       !- Humidity Indicating Day Schedule Name
  DefaultMultipliers,                     !- Dry-Bulb Temperature Range Modifier Type
  ,                                       !- Dry-Bulb Temperature Range Modifier Schedule Name
  ASHRAETau,                              !- Solar Model Indicator
  ,                                       !- Beam Solar Day Schedule Name
  ,                                       !- Diffuse Solar Day Schedule Name
  0.288,                                  !- ASHRAE Taub {dimensionless}
  2.543;                                  !- ASHRAE Taud {dimensionless}

OS:WeatherFile,
  {0bc31159-efcc-4bef-8a51-553a239a9c5d}, !- Handle
  CA_PALMDALE-AP,                         !- City
  -,                                      !- State Province Region
  USA,                                    !- Country
  Custom-723820,                          !- Data Source
  723820,                                 !- WMO Number
  34.63,                                  !- Latitude {deg}
  -118.08,                                !- Longitude {deg}
  -8,                                     !- Time Zone {hr}
  787,                                    !- Elevation {m}
  file:///C:/Users/agoyal/Documents/CBECC-Com 2022 Data/EPW/CTZ14S22A.epw, !- Url
  FE86846E;                               !- Checksum

OS:Sizing:Parameters,
  {aa272e78-da59-445d-9915-2961e1702ead}, !- Handle
  1,                                      !- Heating Sizing Factor
  1;                                      !- Cooling Sizing Factor

OS:Material,
  {4666acb9-7ca1-4b28-8059-5daeea29680d}, !- Handle
  Gypsum Board - 1/2 in.,                 !- Name
  MediumRough,                            !- Roughness
  0.0127,                                 !- Thickness {m}
  0.158656446866265,                      !- Conductivity {W/m-K}
  640.738534958406,                       !- Density {kg/m3}
  1130.436,                               !- Specific Heat {J/kg-K}
  0.9,                                    !- Thermal Absorptance
  0.7,                                    !- Solar Absorptance
  0.8;                                    !- Visible Absorptance

OS:Material,
  {f6a43d9f-555e-4b36-9b46-145c32a464c9}, !- Handle
  Gypsum Board - 5/8 in.,                 !- Name
  Smooth,                                 !- Roughness
  0.016002,                               !- Thickness {m}
  0.158656446866265,                      !- Conductivity {W/m-K}
  640.738534958406,                       !- Density {kg/m3}
  1130.436,                               !- Specific Heat {J/kg-K}
  0.9,                                    !- Thermal Absorptance
  0.7,                                    !- Solar Absorptance
  0.8;                                    !- Visible Absorptance

OS:Material,
  {8b5d94dd-05ee-4d2d-8c86-4d351d7c89df}, !- Handle
  Stucco - 7/8 in.,                       !- Name
  MediumRough,                            !- Roughness
  0.022352,                               !- Thickness {m}
  0.700947539880412,                      !- Conductivity {W/m-K}
  1855.09824333832,                       !- Density {kg/m3}
  837.36,                                 !- Specific Heat {J/kg-K}
  0.9,                                    !- Thermal Absorptance
  0.7,                                    !- Solar Absorptance
  0.8;                                    !- Visible Absorptance

OS:Material,
  {6e7b9798-999e-47b0-a73d-57e9d64499be}, !- Handle
  Carpet - 3/4 in.,                       !- Name
  Smooth,                                 !- Roughness
  0.01905,                                !- Thickness {m}
  0.0455183217255675,                     !- Conductivity {W/m-K}
  288.332340731283,                       !- Density {kg/m3}
  1381.644,                               !- Specific Heat {J/kg-K}
  0.9,                                    !- Thermal Absorptance
  0.7,                                    !- Solar Absorptance
  0.8;                                    !- Visible Absorptance

OS:Material,
  {ec94f2f6-0877-48ab-89b9-b6aafb093e9c}, !- Handle
  Plywood - 5/8 in.,                      !- Name
  Smooth,                                 !- Roughness
  0.016002,                               !- Thickness {m}
  0.115440002246971,                      !- Conductivity {W/m-K}
  480.553901218804,                       !- Density {kg/m3}
  1884.06;                                !- Specific Heat {J/kg-K}

OS:Material,
  {29396ac4-56df-4396-8833-5b85e640db8e}, !- Handle
  Compliance Insulation R1.54,            !- Name
  Smooth,                                 !- Roughness
  0.0062429136,                           !- Thickness {m}
  0.0230187710627394,                     !- Conductivity {W/m-K}
  16.0184633739601,                       !- Density {kg/m3}
  1130.436;                               !- Specific Heat {J/kg-K}

OS:Material,
  {d4b8d0cb-8475-4bed-b1ae-ae7583108d6c}, !- Handle
  Compliance Insulation R1.35,            !- Name
  Smooth,                                 !- Roughness
  0.005472684,                            !- Thickness {m}
  0.0230187710627394,                     !- Conductivity {W/m-K}
  16.0184633739601,                       !- Density {kg/m3}
  1130.436;                               !- Specific Heat {J/kg-K}

OS:Material:NoMass,
  {6d63c6bc-9239-4ab9-9357-5e20572ab335}, !- Handle
  WoodFrameWall16inOC R11.25,             !- Name
  Smooth,                                 !- Roughness
  1.26865197459958;                       !- Thermal Resistance {m2-K/W}

OS:Material,
  {f74942f9-675f-4943-b682-f59be1e5983c}, !- Handle
  Concrete - 140 lb/ft3 - 10 in.,         !- Name
  Smooth,                                 !- Roughness
  0.254,                                  !- Thickness {m}
  1.95140333633374,                       !- Conductivity {W/m-K}
  2239.06081041215,                       !- Density {kg/m3}
  921.096,                                !- Specific Heat {J/kg-K}
  0.9,                                    !- Thermal Absorptance
  0.7,                                    !- Solar Absorptance
  0.8;                                    !- Visible Absorptance

OS:Material:NoMass,
  {aaa5aedb-642d-41a5-843d-d4a34831b574}, !- Handle
  WoodRoof16OCCavInsR38,                  !- Name
  Smooth,                                 !- Roughness
  4.68171312301043,                       !- Thermal Resistance {m2-K/W}
  0.9,                                    !- Thermal Absorptance
  0.7,                                    !- Solar Absorptance
  0.8;                                    !- Visible Absorptance

OS:Material,
  {1a238a01-caba-4be5-ba6c-45aa13d5c007}, !- Handle
  Building Paper - 1/16 in.,              !- Name
  Smooth,                                 !- Roughness
  0.001524,                               !- Thickness {m}
  0.28851346888411,                       !- Conductivity {W/m-K}
  96.1107802437608,                       !- Density {kg/m3}
  1256.04;                                !- Specific Heat {J/kg-K}

OS:Material,
  {2f78fe09-2fff-452e-8093-1065b1bde120}, !- Handle
  Fiberboard sheathing - 1/2 in.,         !- Name
  Smooth,                                 !- Roughness
  0.0127,                                 !- Thickness {m}
  0.0706139743879526,                     !- Conductivity {W/m-K}
  399.820845814045,                       !- Density {kg/m3}
  1297.908;                               !- Specific Heat {J/kg-K}

OS:Material,
  {9ae5c879-6870-4f5f-8bb5-a11ec7abcaff}, !- Handle
  Roofing felt - 1/8 in.,                 !- Name
  MediumRough,                            !- Roughness
  0.001524,                               !- Thickness {m}
  1.19714916872909,                       !- Conductivity {W/m-K}
  230.665872585026,                       !- Density {kg/m3}
  1256.04,                                !- Specific Heat {J/kg-K}
  0.85,                                   !- Thermal Absorptance
  0.92,                                   !- Solar Absorptance
  0.85;                                   !- Visible Absorptance

OS:Material:NoMass,
  {73f31f41-868a-4c40-abac-d04eb1027acf}, !- Handle
  WoodFloor16inOCCavInsR0,                !- Name
  Smooth,                                 !- Roughness
  0.162021368987722;                      !- Thermal Resistance {m2-K/W}

OS:Material,
  {15ee786d-0c6f-4959-913b-5361daaf8adc}, !- Handle
  Stone - 1 in.,                          !- Name
  MediumRough,                            !- Roughness
  0.0254,                                 !- Thickness {m}
  1.80342552235899,                       !- Conductivity {W/m-K}
  2239.06081041215,                       !- Density {kg/m3}
  921.096,                                !- Specific Heat {J/kg-K}
  0.85,                                   !- Thermal Absorptance
  0.92,                                   !- Solar Absorptance
  0.85;                                   !- Visible Absorptance

OS:Material:NoMass,
  {c0e72132-6e5f-4fef-a704-5cc949214a68}, !- Handle
  WoodFraming16inOC,                      !- Name
  Smooth,                                 !- Roughness
  0.14969365612996;                       !- Thermal Resistance {m2-K/W}

OS:Material,
  {8235f0f9-707b-4267-9b91-5e5e2ac16352}, !- Handle
  Concrete - 140 lb/ft3 - 8 in.,          !- Name
  Smooth,                                 !- Roughness
  0.2032,                                 !- Thickness {m}
  1.95140333633374,                       !- Conductivity {W/m-K}
  2239.06081041215,                       !- Density {kg/m3}
  921.096;                                !- Specific Heat {J/kg-K}

OS:Material,
  {f96a415e-d3cd-47e2-a770-1bb28c006a9f}, !- Handle
  Concrete - 140 lb/ft3 - 4 in.,          !- Name
  Smooth,                                 !- Roughness
  0.1016,                                 !- Thickness {m}
  1.95140333633374,                       !- Conductivity {W/m-K}
  2239.06081041215,                       !- Density {kg/m3}
  921.096;                                !- Specific Heat {J/kg-K}

OS:Material,
  {a1fc3e1d-6748-4837-8b1c-6c9766b6fd5b}, !- Handle
  Compliance Insulation R0.01,            !- Name
  Smooth,                                 !- Roughness
  4.05384e-005,                           !- Thickness {m}
  0.0230187710627394,                     !- Conductivity {W/m-K}
  16.0184633739601,                       !- Density {kg/m3}
  1130.436;                               !- Specific Heat {J/kg-K}

OS:Material,
  {52c7c61e-867f-4f4d-a91e-c6294b2ee870}, !- Handle
  Compliance Insulation R20.00,           !- Name
  Smooth,                                 !- Roughness
  0.0810768,                              !- Thickness {m}
  0.0230187710627394,                     !- Conductivity {W/m-K}
  16.0184633739601,                       !- Density {kg/m3}
  1130.436;                               !- Specific Heat {J/kg-K}

OS:Material,
  {840c99e6-99df-40e9-92c8-8641380d7e0a}, !- Handle
  Compliance Insulation R0.20,            !- Name
  Smooth,                                 !- Roughness
  0.000810768,                            !- Thickness {m}
  0.0230187710627394,                     !- Conductivity {W/m-K}
  16.0184633739601,                       !- Density {kg/m3}
  1130.436;                               !- Specific Heat {J/kg-K}

OS:Material,
  {615d9e77-3e8b-40d2-81bc-ee5a52e704c9}, !- Handle