
OS:Version,
  {09ae8a7d-4486-4d9d-8852-ef9ae210804c}, !- Handle
  2.7.2;                                  !- Version Identifier

OS:SimulationControl,
  {3a761a59-0e25-49b2-8ddf-95c034481cee}, !- Handle
  ,                                       !- Do Zone Sizing Calculation
  ,                                       !- Do System Sizing Calculation
  ,                                       !- Do Plant Sizing Calculation
  No,                                     !- Run Simulation for Sizing Periods
  Yes,                                    !- Run Simulation for Weather File Run Periods
  ,                                       !- Loads Convergence Tolerance Value
  ,                                       !- Temperature Convergence Tolerance Value {deltaC}
  FullExterior,                           !- Solar Distribution
  50;                                     !- Maximum Number of Warmup Days

OS:YearDescription,
  {85d1861a-f7a4-4d7a-8c78-8d57c700a850}, !- Handle
  2009,                                   !- Calendar Year
  ,                                       !- Day of Week for Start Day
  ;                                       !- Is Leap Year

OS:RunPeriod,
  {3f50a218-0ece-42de-a47a-ad4b338709ea}, !- Handle
  CTZ07S22A,                              !- Name
  1,                                      !- Begin Month
  1,                                      !- Begin Day of Month
  12,                                     !- End Month
  31,                                     !- End Day of Month
  No,                                     !- Use Weather File Holidays and Special Days
  No,                                     !- Use Weather File Daylight Saving Period
  Yes,                                    !- Apply Weekend Holiday Rule
  ,                                       !- Use Weather File Rain Indicators
  ,                                       !- Use Weather File Snow Indicators
  ;                                       !- Number of Times Runperiod to be Repeated

OS:Site,
  {cc9291ab-7c1c-4d5b-991b-fdfda1e25427}, !- Handle
  CA_SAN-DIEGO-LINDBERGH-F_USA Design_Conditions, !- Name
  32.73,                                  !- Latitude {deg}
  -117.18,                                !- Longitude {deg}
  -8,                                     !- Time Zone {hr}
  7.9248,                                 !- Elevation {m}
  ;                                       !- Terrain

OS:SizingPeriod:DesignDay,
  {ce02a17e-82cd-438a-9a6f-539cf4711b79}, !- Handle
  CA_SAN-DIEGO-LINDBERGH-F Ann Htg 99.6% Condns DB, !- Name
  7.2,                                    !- Maximum Dry-Bulb Temperature {C}
  0,                                      !- Daily Dry-Bulb Temperature Range {deltaC}
  7.2,                                    !- Humidity Indicating Conditions at Maximum Dry-Bulb
  101229,                                 !- Barometric Pressure {Pa}
  1,                                      !- Wind Speed {m/s}
  340,                                    !- Wind Direction {deg}
  0,                                      !- Sky Clearness
  0,                                      !- Rain Indicator
  0,                                      !- Snow Indicator
  21,                                     !- Day of Month
  12,                                     !- Month
  WinterDesignDay,                        !- Day Type
  0,                                      !- Daylight Saving Time Indicator
  Wetbulb,                                !- Humidity Indicating Type
  ,                                       !- Humidity Indicating Day Schedule Name
  DefaultMultipliers,                     !- Dry-Bulb Temperature Range Modifier Type
  ,                                       !- Dry-Bulb Temperature Range Modifier Schedule Name
  ASHRAEClearSky;                         !- Solar Model Indicator

OS:SizingPeriod:DesignDay,
  {8d85c321-55ad-491c-b5ae-0636f8cb9a53}, !- Handle
  CA_SAN-DIEGO-LINDBERGH-F Ann Clg .4% Condns DB=>MWB, !- Name
  28.7,                                   !- Maximum Dry-Bulb Temperature {C}
  4.8,                                    !- Daily Dry-Bulb Temperature Range {deltaC}
  18.2,                                   !- Humidity Indicating Conditions at Maximum Dry-Bulb
  101229,                                 !- Barometric Pressure {Pa}
  4.1,                                    !- Wind Speed {m/s}
  300,                                    !- Wind Direction {deg}
  0,                                      !- Sky Clearness
  0,                                      !- Rain Indicator
  0,                                      !- Snow Indicator
  21,                                     !- Day of Month
  8,                                      !- Month
  SummerDesignDay,                        !- Day Type
  0,                                      !- Daylight Saving Time Indicator
  Wetbulb,                                !- Humidity Indicating Type
  ,                                       !- Humidity Indicating Day Schedule Name
  DefaultMultipliers,                     !- Dry-Bulb Temperature Range Modifier Type
  ,                                       !- Dry-Bulb Temperature Range Modifier Schedule Name
  ASHRAETau,                              !- Solar Model Indicator
  ,                                       !- Beam Solar Day Schedule Name
  ,                                       !- Diffuse Solar Day Schedule Name
  0.399,                                  !- ASHRAE Taub {dimensionless}
  2.408;                                  !- ASHRAE Taud {dimensionless}

OS:SizingPeriod:DesignDay,
  {c3a3ed81-7532-43a2-8628-97e930265bc3}, !- Handle
  CA_SAN-DIEGO-LINDBERGH-F Ann Clg .4% Condns WB=>MDB, !- Name
  25.4,                                   !- Maximum Dry-Bulb Temperature {C}
  4.8,                                    !- Daily Dry-Bulb Temperature Range {deltaC}
  21.7,                                   !- Humidity Indicating Conditions at Maximum Dry-Bulb
  101229,                                 !- Barometric Pressure {Pa}
  4.1,                                    !- Wind Speed {m/s}
  300,                                    !- Wind Direction {deg}
  0,                                      !- Sky Clearness
  0,                                      !- Rain Indicator
  0,                                      !- Snow Indicator
  21,                                     !- Day of Month
  8,                                      !- Month
  SummerDesignDay,                        !- Day Type
  0,                                      !- Daylight Saving Time Indicator
  Wetbulb,                                !- Humidity Indicating Type
  ,                                       !- Humidity Indicating Day Schedule Name
  DefaultMultipliers,                     !- Dry-Bulb Temperature Range Modifier Type
  ,                                       !- Dry-Bulb Temperature Range Modifier Schedule Name
  ASHRAETau,                              !- Solar Model Indicator
  ,                                       !- Beam Solar Day Schedule Name
  ,                                       !- Diffuse Solar Day Schedule Name
  0.399,                                  !- ASHRAE Taub {dimensionless}
  2.408;                                  !- ASHRAE Taud {dimensionless}

OS:SizingPeriod:DesignDay,
  {37ec5c87-1c1a-4f51-ab1e-8193018426ed}, !- Handle
  CA_SAN-DIEGO-LINDBERGH-F Ann Clg .4% Condns DP=>MDB, !- Name
  23.7,                                   !- Maximum Dry-Bulb Temperature {C}
  4.8,                                    !- Daily Dry-Bulb Temperature Range {deltaC}
  20.3,                                   !- Humidity Indicating Conditions at Maximum Dry-Bulb
  101229,                                 !- Barometric Pressure {Pa}
  4.1,                                    !- Wind Speed {m/s}
  300,                                    !- Wind Direction {deg}
  0,                                      !- Sky Clearness
  0,                                      !- Rain Indicator
  0,                                      !- Snow Indicator
  21,                                     !- Day of Month
  8,                                      !- Month
  SummerDesignDay,                        !- Day Type
  0,                                      !- Daylight Saving Time Indicator
  Dewpoint,                               !- Humidity Indicating Type
  ,                                       !- Humidity Indicating Day Schedule Name
  DefaultMultipliers,                     !- Dry-Bulb Temperature Range Modifier Type
  ,                                       !- Dry-Bulb Temperature Range Modifier Schedule Name
  ASHRAETau,                              !- Solar Model Indicator
  ,                                       !- Beam Solar Day Schedule Name
  ,                                       !- Diffuse Solar Day Schedule Name
  0.399,                                  !- ASHRAE Taub {dimensionless}
  2.408;                                  !- ASHRAE Taud {dimensionless}

OS:SizingPeriod:DesignDay,
  {ffa0abe6-99c5-4bf6-a687-57acad7eff18}, !- Handle
  CA_SAN-DIEGO-LINDBERGH-F June .4% Condns DB=>MCWB, !- Name
  27.2,                                   !- Maximum Dry-Bulb Temperature {C}
  4.3,                                    !- Daily Dry-Bulb Temperature Range {deltaC}
  19.4,                                   !- Humidity Indicating Conditions at Maximum Dry-Bulb
  101229,                                 !- Barometric Pressure {Pa}
  3.2,                                    !- Wind Speed {m/s}
  300,                                    !- Wind Direction {deg}
  0,                                      !- Sky Clearness
  0,                                      !- Rain Indicator
  0,                                      !- Snow Indicator
  21,                                     !- Day of Month
  6,                                      !- Month
  SummerDesignDay,                        !- Day Type
  0,                                      !- Daylight Saving Time Indicator
  Wetbulb,                                !- Humidity Indicating Type
  ,                                       !- Humidity Indicating Day Schedule Name
  DefaultMultipliers,                     !- Dry-Bulb Temperature Range Modifier Type
  ,                                       !- Dry-Bulb Temperature Range Modifier Schedule Name
  ASHRAETau,                              !- Solar Model Indicator
  ,                                       !- Beam Solar Day Schedule Name
  ,                                       !- Diffuse Solar Day Schedule Name
  0.371,                                  !- ASHRAE Taub {dimensionless}
  2.424;                                  !- ASHRAE Taud {dimensionless}

OS:SizingPeriod:DesignDay,
  {bebf1956-fb09-4fb8-a7cd-c452d5b268fb}, !- Handle
  CA_SAN-DIEGO-LINDBERGH-F July .4% Condns DB=>MCWB, !- Name
  27.6,                                   !- Maximum Dry-Bulb Temperature {C}
  4.4,                                    !- Daily Dry-Bulb Temperature Range {deltaC}
  20.5,                                   !- Humidity Indicating Conditions at Maximum Dry-Bulb
  101229,                                 !- Barometric Pressure {Pa}
  3.1,                                    !- Wind Speed {m/s}
  300,                                    !- Wind Direction {deg}
  0,                                      !- Sky Clearness
  0,                                      !- Rain Indicator
  0,                                      !- Snow Indicator
  21,                                     !- Day of Month
  7,                                      !- Month
  SummerDesignDay,                        !- Day Type
  0,                                      !- Daylight Saving Time Indicator
  Wetbulb,                                !- Humidity Indicating Type
  ,                                       !- Humidity Indicating Day Schedule Name
  DefaultMultipliers,                     !- Dry-Bulb Temperature Range Modifier Type
  ,                                       !- Dry-Bulb Temperature Range Modifier Schedule Name
  ASHRAETau,                              !- Solar Model Indicator
  ,                                       !- Beam Solar Day Schedule Name
  ,                                       !- Diffuse Solar Day Schedule Name
  0.4,                                    !- ASHRAE Taub {dimensionless}
  2.426;                                  !- ASHRAE Taud {dimensionless}

OS:SizingPeriod:DesignDay,
  {3ed2325b-ed1c-4c2a-9ec4-801d1809999f}, !- Handle
  CA_SAN-DIEGO-LINDBERGH-F August .4% Condns DB=>MCWB, !- Name
  29.3,                                   !- Maximum Dry-Bulb Temperature {C}
  4.8,                                    !- Daily Dry-Bulb Temperature Range {deltaC}
  20.8,                                   !- Humidity Indicating Conditions at Maximum Dry-Bulb
  101229,                                 !- Barometric Pressure {Pa}
  3,                                      !- Wind Speed {m/s}
  300,                                    !- Wind Direction {deg}
  0,                                      !- Sky Clearness
  0,                                      !- Rain Indicator
  0,                                      !- Snow Indicator
  21,                                     !- Day of Month
  8,                                      !- Month
  SummerDesignDay,                        !- Day Type
  0,                                      !- Daylight Saving Time Indicator
  Wetbulb,                                !- Humidity Indicating Type
  ,                                       !- Humidity Indicating Day Schedule Name
  DefaultMultipliers,                     !- Dry-Bulb Temperature Range Modifier Type
  ,                                       !- Dry-Bulb Temperature Range Modifier Schedule Name
  ASHRAETau,                              !- Solar Model Indicator
  ,                                       !- Beam Solar Day Schedule Name
  ,                                       !- Diffuse Solar Day Schedule Name
  0.399,                                  !- ASHRAE Taub {dimensionless}
  2.408;                                  !- ASHRAE Taud {dimensionless}

OS:SizingPeriod:DesignDay,
  {c855b880-2565-4313-9e1f-aa9495acd767}, !- Handle
  CA_SAN-DIEGO-LINDBERGH-F September .4% Condns DB=>MCWB, !- Name
  30.5,                                   !- Maximum Dry-Bulb Temperature {C}
  5.3,                                    !- Daily Dry-Bulb Temperature Range {deltaC}
  20.4,                                   !- Humidity Indicating Conditions at Maximum Dry-Bulb
  101229,                                 !- Barometric Pressure {Pa}
  2.9,                                    !- Wind Speed {m/s}
  300,                                    !- Wind Direction {deg}
  0,                                      !- Sky Clearness
  0,                                      !- Rain Indicator
  0,                                      !- Snow Indicator
  21,                                     !- Day of Month
  9,                                      !- Month
  SummerDesignDay,                        !- Day Type
  0,                                      !- Daylight Saving Time Indicator
  Wetbulb,                                !- Humidity Indicating Type
  ,                                       !- Humidity Indicating Day Schedule Name
  DefaultMultipliers,                     !- Dry-Bulb Temperature Range Modifier Type
  ,                                       !- Dry-Bulb Temperature Range Modifier Schedule Name
  ASHRAETau,                              !- Solar Model Indicator
  ,                                       !- Beam Solar Day Schedule Name
  ,                                       !- Diffuse Solar Day Schedule Name
  0.365,                                  !- ASHRAE Taub {dimensionless}
  2.479;                                  !- ASHRAE Taud {dimensionless}

OS:SizingPeriod:DesignDay,
  {89f155d0-c9bd-4cd1-b858-04fe80c330c1}, !- Handle
  CA_SAN-DIEGO-LINDBERGH-F October .4% Condns DB=>MCWB, !- Name
  30.5,                                   !- Maximum Dry-Bulb Temperature {C}
  6.2,                                    !- Daily Dry-Bulb Temperature Range {deltaC}
  16,                                     !- Humidity Indicating Conditions at Maximum Dry-Bulb
  101229,                                 !- Barometric Pressure {Pa}
  2.5,                                    !- Wind Speed {m/s}
  300,                                    !- Wind Direction {deg}
  0,                                      !- Sky Clearness
  0,                                      !- Rain Indicator
  0,                                      !- Snow Indicator
  21,                                     !- Day of Month
  10,                                     !- Month
  SummerDesignDay,                        !- Day Type
  0,                                      !- Daylight Saving Time Indicator
  Wetbulb,                                !- Humidity Indicating Type
  ,                                       !- Humidity Indicating Day Schedule Name
  DefaultMultipliers,                     !- Dry-Bulb Temperature Range Modifier Type
  ,                                       !- Dry-Bulb Temperature Range Modifier Schedule Name
  ASHRAETau,                              !- Solar Model Indicator
  ,                                       !- Beam Solar Day Schedule Name
  ,                                       !- Diffuse Solar Day Schedule Name
  0.372,                                  !- ASHRAE Taub {dimensionless}
  2.432;                                  !- ASHRAE Taud {dimensionless}

OS:SizingPeriod:DesignDay,
  {84b2a35c-6915-4cd3-b0b8-687f1d97f4c0}, !- Handle
  CA_SAN-DIEGO-LINDBERGH-F November .4% Condns DB=>MCWB, !- Name
  29.1,                                   !- Maximum Dry-Bulb Temperature {C}
  7.9,                                    !- Daily Dry-Bulb Temperature Range {deltaC}
  14.7,                                   !- Humidity Indicating Conditions at Maximum Dry-Bulb
  101229,                                 !- Barometric Pressure {Pa}
  2.2,                                    !- Wind Speed {m/s}
  300,                                    !- Wind Direction {deg}
  0,                                      !- Sky Clearness
  0,                                      !- Rain Indicator
  0,                                      !- Snow Indicator
  21,                                     !- Day of Month
  11,                                     !- Month
  SummerDesignDay,                        !- Day Type
  0,                                      !- Daylight Saving Time Indicator
  Wetbulb,                                !- Humidity Indicating Type
  ,                                       !- Humidity Indicating Day Schedule Name
  DefaultMultipliers,                     !- Dry-Bulb Temperature Range Modifier Type
  ,                                       !- Dry-Bulb Temperature Range Modifier Schedule Name
  ASHRAETau,                              !- Solar Model Indicator
  ,                                       !- Beam Solar Day Schedule Name
  ,                                       !- Diffuse Solar Day Schedule Name
  0.325,                                  !- ASHRAE Taub {dimensionless}
  2.555;                                  !- ASHRAE Taud {dimensionless}

OS:WeatherFile,
  {97e4ccfc-353e-4fbd-a25c-40b892eada84}, !- Handle
  CA_SAN-DIEGO-LINDBERGH-F,               !- City
  -,                                      !- State Province Region
  USA,                                    !- Country
  Custom-722900,                          !- Data Source
  722900,                                 !- WMO Number
  32.73,                                  !- Latitude {deg}
  -117.18,                                !- Longitude {deg}
  -8,                                     !- Time Zone {hr}
  8,                                      !- Elevation {m}
  file:///C:/Users/agoyal/OneDrive - TRC/Documents/CBECC-Com 2022 Data/EPW/CTZ07S22A.epw, !- Url
  21561254;                               !- Checksum

OS:Sizing:Parameters,
  {206c6a65-4ae9-4b17-9214-e6fb19b158ac}, !- Handle
  1,                                      !- Heating Sizing Factor
  1;                                      !- Cooling Sizing Factor

OS:Material,
  {88a49146-e2ae-4548-b619-13079ac9167d}, !- Handle
  Gypsum Board - 1/2 in.,                 !- Name
  MediumRough,                            !- Roughness
  0.0127,                                 !- Thickness {m}
  0.158656446866265,                      !- Conductivity {W/m-K}
  640.738534958406,                       !- Density {kg/m3}
  1130.436,                               !- Specific Heat {J/kg-K}
  0.9,                                    !- Thermal Absorptance
  0.7,                                    !- Solar Absorptance
  0.8;                                    !- Visible Absorptance

OS:Material,
  {39de4c30-6286-48e3-9de4-c3aac0b8b5d3}, !- Handle
  Gypsum Board - 5/8 in.,                 !- Name
  Smooth,                                 !- Roughness
  0.016002,                               !- Thickness {m}
  0.158656446866265,                      !- Conductivity {W/m-K}
  640.738534958406,                       !- Density {kg/m3}
  1130.436,                               !- Specific Heat {J/kg-K}
  0.9,                                    !- Thermal Absorptance
  0.7,                                    !- Solar Absorptance
  0.8;                                    !- Visible Absorptance

OS:Material,
  {9f8bcd6c-cc1e-4787-816a-adca0bad743e}, !- Handle
  Stucco - 7/8 in.,                       !- Name
  MediumRough,                            !- Roughness
  0.022352,                               !- Thickness {m}
  0.700947539880412,                      !- Conductivity {W/m-K}
  1855.09824333832,                       !- Density {kg/m3}
  837.36,                                 !- Specific Heat {J/kg-K}
  0.9,                                    !- Thermal Absorptance
  0.7,                                    !- Solar Absorptance
  0.8;                                    !- Visible Absorptance

OS:Material,
  {25ac1aa5-cccf-4ce4-b8df-c368b0033e25}, !- Handle
  Carpet - 3/4 in.,                       !- Name
  Smooth,                                 !- Roughness
  0.01905,                                !- Thickness {m}
  0.0455183217255675,                     !- Conductivity {W/m-K}
  288.332340731283,                       !- Density {kg/m3}
  1381.644,                               !- Specific Heat {J/kg-K}
  0.9,                                    !- Thermal Absorptance
  0.7,                                    !- Solar Absorptance
  0.8;                                    !- Visible Absorptance

OS:Material,
  {fa4d7bf8-372f-4d01-b753-e17f79b10065}, !- Handle
  Plywood - 5/8 in.,                      !- Name
  Smooth,                                 !- Roughness
  0.016002,                               !- Thickness {m}
  0.115440002246971,                      !- Conductivity {W/m-K}
  480.553901218804,                       !- Density {kg/m3}
  1884.06;                                !- Specific Heat {J/kg-K}

OS:Material,
  {74726691-45d6-4d0e-88e6-06f459f2d4cd}, !- Handle
  Compliance Insulation R1.35,            !- Name
  Smooth,                                 !- Roughness
  0.005472684,                            !- Thickness {m}
  0.0230187710627394,                     !- Conductivity {W/m-K}
  16.0184633739601,                       !- Density {kg/m3}
  1130.436;                               !- Specific Heat {J/kg-K}

OS:Material,
  {9b99d6e8-3135-48b9-8468-767a28abbcda}, !- Handle
  Compliance Insulation R6.00,            !- Name
  Smooth,                                 !- Roughness
  0.02432304,                             !- Thickness {m}
  0.0230187710627394,                     !- Conductivity {W/m-K}
  16.0184633739601,                       !- Density {kg/m3}
  1130.436;                               !- Specific Heat {J/kg-K}

OS:Material:NoMass,
  {6b1083d9-7742-43c2-bedb-894cf6ac716d}, !- Handle
  WoodFrameWall16inOC R11.25,             !- Name
  Smooth,                                 !- Roughness
  1.26865197459958;                       !- Thermal Resistance {m2-K/W}

OS:Material,
  {e7442817-9570-41f6-ba23-44ae00e267f7}, !- Handle
  Concrete - 140 lb/ft3 - 10 in.,         !- Name
  Smooth,                                 !- Roughness
  0.254,                                  !- Thickness {m}
  1.95140333633374,                       !- Conductivity {W/m-K}
  2239.06081041215,                       !- Density {kg/m3}
  921.096,                                !- Specific Heat {J/kg-K}
  0.9,                                    !- Thermal Absorptance
  0.7,                                    !- Solar Absorptance
  0.8;                                    !- Visible Absorptance

OS:Material:NoMass,
  {2638d939-5bde-4ba2-a4e3-f7dfd5c1bfcc}, !- Handle
  WoodRoof16OCCavInsR29,                  !- Name
  Smooth,                                 !- Roughness
  3.91644393083734,                       !- Thermal Resistance {m2-K/W}
  0.9,                                    !- Thermal Absorptance
  0.7,                                    !- Solar Absorptance
  0.8;                                    !- Visible Absorptance

OS:Material,
  {9ba26919-0ee6-48c0-ad7f-53b53e908e99}, !- Handle
  Building Paper - 1/16 in.,              !- Name
  Smooth,                                 !- Roughness
  0.001524,                               !- Thickness {m}
  0.28851346888411,                       !- Conductivity {W/m-K}
  96.1107802437608,                       !- Density {kg/m3}
  1256.04;                                !- Specific Heat {J/kg-K}

OS:Material,
  {9709a2c1-867e-4c8e-bbde-625258b52730}, !- Handle
  Fiberboard sheathing - 1/2 in.,         !- Name
  Smooth,                                 !- Roughness
  0.0127,                                 !- Thickness {m}
  0.0706139743879526,                     !- Conductivity {W/m-K}
  399.820845814045,                       !- Density {kg/m3}
  1297.908;                               !- Specific Heat {J/kg-K}

OS:Material,
  {08ed9319-b81f-42f4-b8a3-e9266bd21820}, !- Handle
  Roofing felt - 1/8 in.,                 !- Name
  MediumRough,                            !- Roughness
  0.001524,                               !- Thickness {m}
  1.19714916872909,                       !- Conductivity {W/m-K}
  230.665872585026,                       !- Density {kg/m3}
  1256.04,                                !- Specific Heat {J/kg-K}
  0.75,                                   !- Thermal Absorptance
  0.9,                                    !- Solar Absorptance
  0.85;                                   !- Visible Absorptance

OS:Material:NoMass,
  {f1065753-12fc-40e6-82e3-c6029659a9e4}, !- Handle
  WoodFloor16inOCCavInsR0,                !- Name
  Smooth,                                 !- Roughness
  0.162021368987722;                      !- Thermal Resistance {m2-K/W}

OS:Material,
  {b3311511-0c77-41a9-a46b-bcecd55e55c2}, !- Handle
  Stone - 1 in.,                          !- Name
  MediumRough,                            !- Roughness
  0.0254,                                 !- Thickness {m}
  1.80342552235899,                       !- Conductivity {W/m-K}
  2239.06081041215,                       !- Density {kg/m3}
  921.096,                                !- Specific Heat {J/kg-K}
  0.85,                                   !- Thermal Absorptance
  0.92,                                   !- Solar Absorptance
  0.85;                                   !- Visible Absorptance

OS:Material:NoMass,
  {bea2d968-515d-4cdf-8c9e-6b0c7d84d97a}, !- Handle
  WoodFraming16inOC,                      !- Name
  Smooth,                                 !- Roughness
  0.14969365612996;                       !- Thermal Resistance {m2-K/W}

OS:Material,
  {92cebe9d-2f6b-40c2-81db-c8094d6258c9}, !- Handle
  Concrete - 140 lb/ft3 - 8 in.,          !- Name
  Smooth,                                 !- Roughness
  0.2032,                                 !- Thickness {m}
  1.95140333633374,                       !- Conductivity {W/m-K}
  2239.06081041215,                       !- Density {kg/m3}
  921.096;                                !- Specific Heat {J/kg-K}

OS:Material,
  {9e5e553b-0e16-41df-be8d-b588bab23970}, !- Handle
  Concrete - 140 lb/ft3 - 4 in.,          !- Name
  Smooth,                                 !- Roughness
  0.1016,                                 !- Thickness {m}
  1.95140333633374,                       !- Conductivity {W/m-K}
  2239.06081041215,                       !- Density {kg/m3}
  921.096;                                !- Specific Heat {J/kg-K}

OS:Material,
  {5f9e5e4f-4a41-4a2a-a3fc-5ea3a5476759}, !- Handle
  Compliance Insulation R0.20,            !- Name
  Smooth,                                 !- Roughness
  0.000810768,                            !- Thickness {m}
  0.0230187710627394,                     !- Conductivity {W/m-K}
  16.0184633739601,                       !- Density {kg/m3}
  1130.436;                               !- Specific Heat {J/kg-K}

OS:Material,
  {d6650e36-5c2f-453c-8342-8b5103630293}, !- Handle
  Compliance Insulation R0.10,            !- Name
  Smooth,                                 !- Roughness
  0.000405384,                            !- Thickness {m}
  0.0230187710627394,                     !- Conductivity {W/m-K}
  16.0184633739601,                       !- Density {kg/m3}
  1130.436;                               !- Specific Heat {J/kg-K}

OS:Material,
  {027f3c65-cb34-4fab-9060-307daf79e622}, !- Handle
  Compliance Insulation R2.15,            !- Name
  Smooth,                                 !- Roughness
  0.008715756,                            !- Thickness {m}
  0.0230187710627394,                     !- Conductivity {W/m-K}
  16.0184633739601,                       !- Density {kg/m3}