
OS:Version,
  {9e5dbed1-f860-416b-a157-d75ee3342d79}, !- Handle
  2.7.2;                                  !- Version Identifier

OS:SimulationControl,
  {ca488a03-9ca6-4ec4-ae3b-3c7124cbed30}, !- Handle
  ,                                       !- Do Zone Sizing Calculation
  ,                                       !- Do System Sizing Calculation
  ,                                       !- Do Plant Sizing Calculation
  No,                                     !- Run Simulation for Sizing Periods
  Yes,                                    !- Run Simulation for Weather File Run Periods
  ,                                       !- Loads Convergence Tolerance Value
  ,                                       !- Temperature Convergence Tolerance Value {deltaC}
  FullExterior,                           !- Solar Distribution
  50;                                     !- Maximum Number of Warmup Days

OS:YearDescription,
  {72040169-5daa-45b1-a010-0e6dba2b8d4c}, !- Handle
  2009,                                   !- Calendar Year
  ,                                       !- Day of Week for Start Day
  ;                                       !- Is Leap Year

OS:RunPeriod,
  {e4ff4322-4510-4d1b-a8c9-329abb80dd01}, !- Handle
  CTZ08S22A,                              !- Name
  1,                                      !- Begin Month
  1,                                      !- Begin Day of Month
  12,                                     !- End Month
  31,                                     !- End Day of Month
  No,                                     !- Use Weather File Holidays and Special Days
  No,                                     !- Use Weather File Daylight Saving Period
  Yes,                                    !- Apply Weekend Holiday Rule
  ,                                       !- Use Weather File Rain Indicators
  ,                                       !- Use Weather File Snow Indicators
  ;                                       !- Number of Times Runperiod to be Repeated

OS:Site,
  {61241f8c-f77f-4894-9ba8-bbe9b6c9daf3}, !- Handle
  CA_FULLERTON-MUNI-AP_USA Design_Conditions, !- Name
  33.87,                                  !- Latitude {deg}
  -117.98,                                !- Longitude {deg}
  -8,                                     !- Time Zone {hr}
  28.956,                                 !- Elevation {m}
  ;                                       !- Terrain

OS:SizingPeriod:DesignDay,
  {b2aae4fc-45e3-43fa-8e62-0809b08eca4c}, !- Handle
  CA_FULLERTON-MUNI-AP Ann Htg 99.6% Condns DB, !- Name
  4.3,                                    !- Maximum Dry-Bulb Temperature {C}
  0,                                      !- Daily Dry-Bulb Temperature Range {deltaC}
  4.3,                                    !- Humidity Indicating Conditions at Maximum Dry-Bulb
  100977,                                 !- Barometric Pressure {Pa}
  0.5,                                    !- Wind Speed {m/s}
  90,                                     !- Wind Direction {deg}
  0,                                      !- Sky Clearness
  0,                                      !- Rain Indicator
  0,                                      !- Snow Indicator
  21,                                     !- Day of Month
  12,                                     !- Month
  WinterDesignDay,                        !- Day Type
  0,                                      !- Daylight Saving Time Indicator
  Wetbulb,                                !- Humidity Indicating Type
  ,                                       !- Humidity Indicating Day Schedule Name
  DefaultMultipliers,                     !- Dry-Bulb Temperature Range Modifier Type
  ,                                       !- Dry-Bulb Temperature Range Modifier Schedule Name
  ASHRAEClearSky;                         !- Solar Model Indicator

OS:SizingPeriod:DesignDay,
  {152e3f71-9357-4d07-8b3a-e2f1368d6a9c}, !- Handle
  CA_FULLERTON-MUNI-AP Ann Clg .4% Condns DB=>MWB, !- Name
  35,                                     !- Maximum Dry-Bulb Temperature {C}
  10.7,                                   !- Daily Dry-Bulb Temperature Range {deltaC}
  19.4,                                   !- Humidity Indicating Conditions at Maximum Dry-Bulb
  100977,                                 !- Barometric Pressure {Pa}
  2.9,                                    !- Wind Speed {m/s}
  220,                                    !- Wind Direction {deg}
  0,                                      !- Sky Clearness
  0,                                      !- Rain Indicator
  0,                                      !- Snow Indicator
  21,                                     !- Day of Month
  8,                                      !- Month
  SummerDesignDay,                        !- Day Type
  0,                                      !- Daylight Saving Time Indicator
  Wetbulb,                                !- Humidity Indicating Type
  ,                                       !- Humidity Indicating Day Schedule Name
  DefaultMultipliers,                     !- Dry-Bulb Temperature Range Modifier Type
  ,                                       !- Dry-Bulb Temperature Range Modifier Schedule Name
  ASHRAETau,                              !- Solar Model Indicator
  ,                                       !- Beam Solar Day Schedule Name
  ,                                       !- Diffuse Solar Day Schedule Name
  0.373,                                  !- ASHRAE Taub {dimensionless}
  2.475;                                  !- ASHRAE Taud {dimensionless}

OS:SizingPeriod:DesignDay,
  {d3e5d0e8-9a2b-4111-a156-74372963b331}, !- Handle
  CA_FULLERTON-MUNI-AP Ann Clg .4% Condns WB=>MDB, !- Name
  30.7,                                   !- Maximum Dry-Bulb Temperature {C}
  10.7,                                   !- Daily Dry-Bulb Temperature Range {deltaC}
  22.4,                                   !- Humidity Indicating Conditions at Maximum Dry-Bulb
  100977,                                 !- Barometric Pressure {Pa}
  2.9,                                    !- Wind Speed {m/s}
  220,                                    !- Wind Direction {deg}
  0,                                      !- Sky Clearness
  0,                                      !- Rain Indicator
  0,                                      !- Snow Indicator
  21,                                     !- Day of Month
  8,                                      !- Month
  SummerDesignDay,                        !- Day Type
  0,                                      !- Daylight Saving Time Indicator
  Wetbulb,                                !- Humidity Indicating Type
  ,                                       !- Humidity Indicating Day Schedule Name
  DefaultMultipliers,                     !- Dry-Bulb Temperature Range Modifier Type
  ,                                       !- Dry-Bulb Temperature Range Modifier Schedule Name
  ASHRAETau,                              !- Solar Model Indicator
  ,                                       !- Beam Solar Day Schedule Name
  ,                                       !- Diffuse Solar Day Schedule Name
  0.373,                                  !- ASHRAE Taub {dimensionless}
  2.475;                                  !- ASHRAE Taud {dimensionless}

OS:SizingPeriod:DesignDay,
  {4421bb45-9531-49b7-9725-ce021ca66bd0}, !- Handle
  CA_FULLERTON-MUNI-AP Ann Clg .4% Condns DP=>MDB, !- Name
  26.1,                                   !- Maximum Dry-Bulb Temperature {C}
  10.7,                                   !- Daily Dry-Bulb Temperature Range {deltaC}
  19.4,                                   !- Humidity Indicating Conditions at Maximum Dry-Bulb
  100977,                                 !- Barometric Pressure {Pa}
  2.9,                                    !- Wind Speed {m/s}
  220,                                    !- Wind Direction {deg}
  0,                                      !- Sky Clearness
  0,                                      !- Rain Indicator
  0,                                      !- Snow Indicator
  21,                                     !- Day of Month
  8,                                      !- Month
  SummerDesignDay,                        !- Day Type
  0,                                      !- Daylight Saving Time Indicator
  Dewpoint,                               !- Humidity Indicating Type
  ,                                       !- Humidity Indicating Day Schedule Name
  DefaultMultipliers,                     !- Dry-Bulb Temperature Range Modifier Type
  ,                                       !- Dry-Bulb Temperature Range Modifier Schedule Name
  ASHRAETau,                              !- Solar Model Indicator
  ,                                       !- Beam Solar Day Schedule Name
  ,                                       !- Diffuse Solar Day Schedule Name
  0.373,                                  !- ASHRAE Taub {dimensionless}
  2.475;                                  !- ASHRAE Taud {dimensionless}

OS:SizingPeriod:DesignDay,
  {437450c4-bdbc-4b90-bc78-6ed1dda512ab}, !- Handle
  CA_FULLERTON-MUNI-AP June .4% Condns DB=>MCWB, !- Name
  33.4,                                   !- Maximum Dry-Bulb Temperature {C}
  8.7,                                    !- Daily Dry-Bulb Temperature Range {deltaC}
  20.7,                                   !- Humidity Indicating Conditions at Maximum Dry-Bulb
  100977,                                 !- Barometric Pressure {Pa}
  2,                                      !- Wind Speed {m/s}
  220,                                    !- Wind Direction {deg}
  0,                                      !- Sky Clearness
  0,                                      !- Rain Indicator
  0,                                      !- Snow Indicator
  21,                                     !- Day of Month
  6,                                      !- Month
  SummerDesignDay,                        !- Day Type
  0,                                      !- Daylight Saving Time Indicator
  Wetbulb,                                !- Humidity Indicating Type
  ,                                       !- Humidity Indicating Day Schedule Name
  DefaultMultipliers,                     !- Dry-Bulb Temperature Range Modifier Type
  ,                                       !- Dry-Bulb Temperature Range Modifier Schedule Name
  ASHRAETau,                              !- Solar Model Indicator
  ,                                       !- Beam Solar Day Schedule Name
  ,                                       !- Diffuse Solar Day Schedule Name
  0.386,                                  !- ASHRAE Taub {dimensionless}
  2.384;                                  !- ASHRAE Taud {dimensionless}

OS:SizingPeriod:DesignDay,
  {95c26784-61b1-4a11-add1-2c30488f8716}, !- Handle
  CA_FULLERTON-MUNI-AP July .4% Condns DB=>MCWB, !- Name
  34,                                     !- Maximum Dry-Bulb Temperature {C}
  9.8,                                    !- Daily Dry-Bulb Temperature Range {deltaC}
  21.2,                                   !- Humidity Indicating Conditions at Maximum Dry-Bulb
  100977,                                 !- Barometric Pressure {Pa}
  1.8,                                    !- Wind Speed {m/s}
  220,                                    !- Wind Direction {deg}
  0,                                      !- Sky Clearness
  0,                                      !- Rain Indicator
  0,                                      !- Snow Indicator
  21,                                     !- Day of Month
  7,                                      !- Month
  SummerDesignDay,                        !- Day Type
  0,                                      !- Daylight Saving Time Indicator
  Wetbulb,                                !- Humidity Indicating Type
  ,                                       !- Humidity Indicating Day Schedule Name
  DefaultMultipliers,                     !- Dry-Bulb Temperature Range Modifier Type
  ,                                       !- Dry-Bulb Temperature Range Modifier Schedule Name
  ASHRAETau,                              !- Solar Model Indicator
  ,                                       !- Beam Solar Day Schedule Name
  ,                                       !- Diffuse Solar Day Schedule Name
  0.389,                                  !- ASHRAE Taub {dimensionless}
  2.444;                                  !- ASHRAE Taud {dimensionless}

OS:SizingPeriod:DesignDay,
  {d83dc9f6-ad36-4a8c-ad73-97afe21dfdbd}, !- Handle
  CA_FULLERTON-MUNI-AP August .4% Condns DB=>MCWB, !- Name
  36.1,                                   !- Maximum Dry-Bulb Temperature {C}
  10.7,                                   !- Daily Dry-Bulb Temperature Range {deltaC}
  21.2,                                   !- Humidity Indicating Conditions at Maximum Dry-Bulb
  100977,                                 !- Barometric Pressure {Pa}
  1.7,                                    !- Wind Speed {m/s}
  220,                                    !- Wind Direction {deg}
  0,                                      !- Sky Clearness
  0,                                      !- Rain Indicator
  0,                                      !- Snow Indicator
  21,                                     !- Day of Month
  8,                                      !- Month
  SummerDesignDay,                        !- Day Type
  0,                                      !- Daylight Saving Time Indicator
  Wetbulb,                                !- Humidity Indicating Type
  ,                                       !- Humidity Indicating Day Schedule Name
  DefaultMultipliers,                     !- Dry-Bulb Temperature Range Modifier Type
  ,                                       !- Dry-Bulb Temperature Range Modifier Schedule Name
  ASHRAETau,                              !- Solar Model Indicator
  ,                                       !- Beam Solar Day Schedule Name
  ,                                       !- Diffuse Solar Day Schedule Name
  0.373,                                  !- ASHRAE Taub {dimensionless}
  2.475;                                  !- ASHRAE Taud {dimensionless}

OS:SizingPeriod:DesignDay,
  {5b684d66-e43f-4b91-94d6-fb0d13e5cbcc}, !- Handle
  CA_FULLERTON-MUNI-AP September .4% Condns DB=>MCWB, !- Name
  38.2,                                   !- Maximum Dry-Bulb Temperature {C}
  11.1,                                   !- Daily Dry-Bulb Temperature Range {deltaC}
  20.9,                                   !- Humidity Indicating Conditions at Maximum Dry-Bulb
  100977,                                 !- Barometric Pressure {Pa}
  1.5,                                    !- Wind Speed {m/s}
  220,                                    !- Wind Direction {deg}
  0,                                      !- Sky Clearness
  0,                                      !- Rain Indicator
  0,                                      !- Snow Indicator
  21,                                     !- Day of Month
  9,                                      !- Month
  SummerDesignDay,                        !- Day Type
  0,                                      !- Daylight Saving Time Indicator
  Wetbulb,                                !- Humidity Indicating Type
  ,                                       !- Humidity Indicating Day Schedule Name
  DefaultMultipliers,                     !- Dry-Bulb Temperature Range Modifier Type
  ,                                       !- Dry-Bulb Temperature Range Modifier Schedule Name
  ASHRAETau,                              !- Solar Model Indicator
  ,                                       !- Beam Solar Day Schedule Name
  ,                                       !- Diffuse Solar Day Schedule Name
  0.359,                                  !- ASHRAE Taub {dimensionless}
  2.505;                                  !- ASHRAE Taud {dimensionless}

OS:SizingPeriod:DesignDay,
  {7f35ff64-6b33-465d-940b-657f18ae65e4}, !- Handle
  CA_FULLERTON-MUNI-AP October .4% Condns DB=>MCWB, !- Name
  35.9,                                   !- Maximum Dry-Bulb Temperature {C}
  11.2,                                   !- Daily Dry-Bulb Temperature Range {deltaC}
  17.5,                                   !- Humidity Indicating Conditions at Maximum Dry-Bulb
  100977,                                 !- Barometric Pressure {Pa}
  1.4,                                    !- Wind Speed {m/s}
  220,                                    !- Wind Direction {deg}
  0,                                      !- Sky Clearness
  0,                                      !- Rain Indicator
  0,                                      !- Snow Indicator
  21,                                     !- Day of Month
  10,                                     !- Month
  SummerDesignDay,                        !- Day Type
  0,                                      !- Daylight Saving Time Indicator
  Wetbulb,                                !- Humidity Indicating Type
  ,                                       !- Humidity Indicating Day Schedule Name
  DefaultMultipliers,                     !- Dry-Bulb Temperature Range Modifier Type
  ,                                       !- Dry-Bulb Temperature Range Modifier Schedule Name
  ASHRAETau,                              !- Solar Model Indicator
  ,                                       !- Beam Solar Day Schedule Name
  ,                                       !- Diffuse Solar Day Schedule Name
  0.363,                                  !- ASHRAE Taub {dimensionless}
  2.465;                                  !- ASHRAE Taud {dimensionless}

OS:SizingPeriod:DesignDay,
  {fa54ee99-f0b0-475b-b854-8be94ab56c67}, !- Handle
  CA_FULLERTON-MUNI-AP November .4% Condns DB=>MCWB, !- Name
  32.7,                                   !- Maximum Dry-Bulb Temperature {C}
  12.1,                                   !- Daily Dry-Bulb Temperature Range {deltaC}
  15.2,                                   !- Humidity Indicating Conditions at Maximum Dry-Bulb
  100977,                                 !- Barometric Pressure {Pa}
  1.3,                                    !- Wind Speed {m/s}
  220,                                    !- Wind Direction {deg}
  0,                                      !- Sky Clearness
  0,                                      !- Rain Indicator
  0,                                      !- Snow Indicator
  21,                                     !- Day of Month
  11,                                     !- Month
  SummerDesignDay,                        !- Day Type
  0,                                      !- Daylight Saving Time Indicator
  Wetbulb,                                !- Humidity Indicating Type
  ,                                       !- Humidity Indicating Day Schedule Name
  DefaultMultipliers,                     !- Dry-Bulb Temperature Range Modifier Type
  ,                                       !- Dry-Bulb Temperature Range Modifier Schedule Name
  ASHRAETau,                              !- Solar Model Indicator
  ,                                       !- Beam Solar Day Schedule Name
  ,                                       !- Diffuse Solar Day Schedule Name
  0.317,                                  !- ASHRAE Taub {dimensionless}
  2.593;                                  !- ASHRAE Taud {dimensionless}

OS:WeatherFile,
  {7808ae07-80f6-494e-9c3b-a9af50332938}, !- Handle
  CA_FULLERTON-MUNI-AP,                   !- City
  -,                                      !- State Province Region
  USA,                                    !- Country
  Custom-722976,                          !- Data Source
  722976,                                 !- WMO Number
  33.87,                                  !- Latitude {deg}
  -117.98,                                !- Longitude {deg}
  -8,                                     !- Time Zone {hr}
  29,                                     !- Elevation {m}
  file:///C:/Users/mnakajima/Documents/CBECC-Com 2022 Data/EPW/CTZ08S22A.epw, !- Url
  77F58FC8;                               !- Checksum

OS:Sizing:Parameters,
  {81e31b10-68b1-4d32-840e-7b56385f3c2a}, !- Handle
  1,                                      !- Heating Sizing Factor
  1;                                      !- Cooling Sizing Factor

OS:Material,
  {22f6dacc-ed8f-4da1-9122-d547952fa3dd}, !- Handle
  Gypsum Board - 1/2 in.,                 !- Name
  Smooth,                                 !- Roughness
  0.0127,                                 !- Thickness {m}
  0.158656446866265,                      !- Conductivity {W/m-K}
  640.738534958406,                       !- Density {kg/m3}
  1130.436,                               !- Specific Heat {J/kg-K}
  0.9,                                    !- Thermal Absorptance
  0.7,                                    !- Solar Absorptance
  0.8;                                    !- Visible Absorptance

OS:Material,
  {a7ee6390-1abd-40cf-8882-1d8d1ef8d4ca}, !- Handle
  Gypsum Board - 5/8 in.,                 !- Name
  MediumRough,                            !- Roughness
  0.016002,                               !- Thickness {m}
  0.158656446866265,                      !- Conductivity {W/m-K}
  640.738534958406,                       !- Density {kg/m3}
  1130.436,                               !- Specific Heat {J/kg-K}
  0.9,                                    !- Thermal Absorptance
  0.7,                                    !- Solar Absorptance
  0.8;                                    !- Visible Absorptance

OS:Material,
  {125f48bc-4a0d-4802-b152-75f340459acb}, !- Handle
  Stucco - 7/8 in.,                       !- Name
  MediumRough,                            !- Roughness
  0.022352,                               !- Thickness {m}
  0.700947539880412,                      !- Conductivity {W/m-K}
  1855.09824333832,                       !- Density {kg/m3}
  837.36,                                 !- Specific Heat {J/kg-K}
  0.9,                                    !- Thermal Absorptance
  0.7,                                    !- Solar Absorptance
  0.8;                                    !- Visible Absorptance

OS:Material,
  {d195d730-63f5-4899-b4ef-887da79b2314}, !- Handle
  Carpet - 3/4 in.,                       !- Name
  Smooth,                                 !- Roughness
  0.01905,                                !- Thickness {m}
  0.0455183217255675,                     !- Conductivity {W/m-K}
  288.332340731283,                       !- Density {kg/m3}
  1381.644,                               !- Specific Heat {J/kg-K}
  0.9,                                    !- Thermal Absorptance
  0.7,                                    !- Solar Absorptance
  0.8;                                    !- Visible Absorptance

OS:Material,
  {361f6a10-4d21-4a2e-b9e8-8ac2992143a9}, !- Handle
  Plywood - 5/8 in.,                      !- Name
  Smooth,                                 !- Roughness
  0.016002,                               !- Thickness {m}
  0.115440002246971,                      !- Conductivity {W/m-K}
  480.553901218804,                       !- Density {kg/m3}
  1884.06;                                !- Specific Heat {J/kg-K}

OS:Material,
  {286413fd-75c8-4ce9-8e1c-0bd347dd3c03}, !- Handle
  Concrete - 140 lb/ft3 - 4 in.,          !- Name
  Smooth,                                 !- Roughness
  0.1016,                                 !- Thickness {m}
  1.95140333633374,                       !- Conductivity {W/m-K}
  2239.06081041215,                       !- Density {kg/m3}
  921.096;                                !- Specific Heat {J/kg-K}

OS:Material,
  {7f653e05-4fbc-4088-978f-3497bc6f2eca}, !- Handle
  Compliance Insulation R0.20,            !- Name
  Smooth,                                 !- Roughness
  0.000810768,                            !- Thickness {m}
  0.0230187710627394,                     !- Conductivity {W/m-K}
  16.0184633739601,                       !- Density {kg/m3}
  1130.436;                               !- Specific Heat {J/kg-K}

OS:Material,
  {493ff99f-401e-4761-b534-1b117f9b92f7}, !- Handle
  Compliance Insulation R2.00,            !- Name
  Smooth,                                 !- Roughness
  0.00810768,                             !- Thickness {m}
  0.0230187710627394,                     !- Conductivity {W/m-K}
  16.0184633739601,                       !- Density {kg/m3}
  1130.436;                               !- Specific Heat {J/kg-K}

OS:Material,
  {df43811d-2b93-427f-8fbc-5d7a68aef705}, !- Handle
  Concrete - Solid Grout - 115 lb/ft3 - 8 in., !- Name
  Smooth,                                 !- Roughness
  0.2032,                                 !- Thickness {m}
  1.31570449337553,                       !- Conductivity {W/m-K}
  1858.14175137938,                       !- Density {kg/m3}
  837.36;                                 !- Specific Heat {J/kg-K}

OS:Material,
  {b03e5b5f-a278-4f75-a9fb-d8bc86a8ff86}, !- Handle
  Compliance Insulation R13.99,           !- Name
  Smooth,                                 !- Roughness
  0.05671312,                             !- Thickness {m}
  0.0230187710627394,                     !- Conductivity {W/m-K}
  16.0184633739601,                       !- Density {kg/m3}
  1130.436;                               !- Specific Heat {J/kg-K}

OS:Material,
  {13e3431b-d149-4903-8539-fa51c2f8214c}, !- Handle
  Air - Metal Wall Framing - 16 or 24 in. OC, !- Name
  Smooth,                                 !- Roughness
  0.1397,                                 !- Thickness {m}
  1.22016793979183,                       !- Conductivity {W/m-K}
  1.28147706991681,                       !- Density {kg/m3}
  1004.832;                               !- Specific Heat {J/kg-K}

OS:Material,
  {d06e8294-1843-45ef-b96a-7055caa56acb}, !- Handle
  Compliance Insulation R10.06,           !- Name
  Smooth,                                 !- Roughness
  0.040781732,                            !- Thickness {m}
  0.0230187710627394,                     !- Conductivity {W/m-K}
  16.0184633739601,                       !- Density {kg/m3}
  1130.436;                               !- Specific Heat {J/kg-K}

OS:Material,
  {7683d90e-b725-4c70-a1f6-65616cb0b2c7}, !- Handle
  Compliance Insulation R0.10,            !- Name
  Smooth,                                 !- Roughness
  0.000405384,                            !- Thickness {m}
  0.0230187710627394,                     !- Conductivity {W/m-K}
  16.0184633739601,                       !- Density {kg/m3}
  1130.436;                               !- Specific Heat {J/kg-K}

OS:Material,
  {ebabc1b6-5a98-42f6-8ae9-70d6c277d93a}, !- Handle
  Metal Standing Seam - 1/16 in.,         !- Name
  MediumRough,                            !- Roughness
  0.0015875,                              !- Thickness {m}
  2.21534037295537,                       !- Conductivity {W/m-K}
  7820.53418843482,                       !- Density {kg/m3}
  502.416,                                !- Specific Heat {J/kg-K}
  0.85,                                   !- Thermal Absorptance
  0.37,                                   !- Solar Absorptance
  0.85;                                   !- Visible Absorptance

OS:Material,
  {e46dba01-d156-4fb7-8756-3336f0e66949}, !- Handle
  Compliance Insulation R34.93,           !- Name
  Smooth,                                 !- Roughness
  0.141600682,                            !- Thickness {m}
  0.0230187710627394,                     !- Conductivity {W/m-K}
  16.0184633739601,                       !- Density {kg/m3}
  1130.436,                               !- Specific Heat {J/kg-K}
  0.9,                                    !- Thermal Absorptance
  0.7,                                    !- Solar Absorptance
  0.8;                                    !- Visible Absorptance

OS:Material,
  {6cd4a848-5721-4b1d-9294-39e186c00043}, !- Handle
  Compliance Insulation R19.63,           !- Name
  Smooth,                                 !- Roughness
  0.07957693,                             !- Thickness {m}
  0.0230187710627394,                     !- Conductivity {W/m-K}
  16.0184633739601,                       !- Density {kg/m3}
  1130.436,                               !- Specific Heat {J/kg-K}
  0.9,                                    !- Thermal Absorptance
  0.7,                                    !- Solar Absorptance
  0.8;                                    !- Visible Absorptance

OS:Material,
  {f1f0c17f-0bb0-48dc-a95e-7ea2a7d7b387}, !- Handle
  Compliance Insulation R9.83,            !- Name
  MediumRough,                            !- Roughness
  0.03986911,                             !- Thickness {m}
  0.0230187710627394,                     !- Conductivity {W/m-K}
  16.0184633739601,                       !- Density {kg/m3}
  1130.436,                               !- Specific Heat {J/kg-K}
  0.9,                                    !- Thermal Absorptance
  0.7,                                    !- Solar Absorptance
  0.8;                                    !- Visible Absorptance

OS:Material,
  {fdb64847-ebc3-4ec3-a8b6-cbbdee9535d0}, !- Handle
  Metal Deck - 1/16 in.,                  !- Name
  MediumRough,                            !- Roughness
  0.0015875,                              !- Thickness {m}
  45.3452482589303,                       !- Conductivity {W/m-K}
  7820.53418843482,                       !- Density {kg/m3}
  502.416,                                !- Specific Heat {J/kg-K}
  0.9,                                    !- Thermal Absorptance
  0.7,                                    !- Solar Absorptance
  0.8;                                    !- Visible Absorptance

OS:Construction,
  {1b4fb2a1-d00d-44e3-9966-430ac4ac81b5}, !- Handle
  MetalFrameWallU062,                     !- Name
  ,                                       !- Surface Rendering Name
  {125f48bc-4a0d-4802-b152-75f340459acb}, !- Layer 1
  {b03e5b5f-a278-4f75-a9fb-d8bc86a8ff86}, !- Layer 2
  {13e3431b-d149-4903-8539-fa51c2f8214c}, !- Layer 3
  {22f6dacc-ed8f-4da1-9122-d547952fa3dd}; !- Layer 4
