
OS:Version,
  {15d17683-b966-47e6-8ffa-dfa6b17d5477}, !- Handle
  2.7.2;                                  !- Version Identifier

OS:SimulationControl,
  {e102aee5-9fa6-4e56-828a-c497bbdbd4ee}, !- Handle
  ,                                       !- Do Zone Sizing Calculation
  ,                                       !- Do System Sizing Calculation
  ,                                       !- Do Plant Sizing Calculation
  No,                                     !- Run Simulation for Sizing Periods
  Yes,                                    !- Run Simulation for Weather File Run Periods
  ,                                       !- Loads Convergence Tolerance Value
  ,                                       !- Temperature Convergence Tolerance Value {deltaC}
  FullExterior,                           !- Solar Distribution
  50;                                     !- Maximum Number of Warmup Days

OS:YearDescription,
  {0e039c34-f1c6-4f97-be82-eee849dc0d7d}, !- Handle
  2009,                                   !- Calendar Year
  ,                                       !- Day of Week for Start Day
  ;                                       !- Is Leap Year

OS:RunPeriod,
  {d2a5bf28-81ce-4f1b-a095-3123c19af375}, !- Handle
  CTZ10S22A,                              !- Name
  1,                                      !- Begin Month
  1,                                      !- Begin Day of Month
  12,                                     !- End Month
  31,                                     !- End Day of Month
  No,                                     !- Use Weather File Holidays and Special Days
  No,                                     !- Use Weather File Daylight Saving Period
  Yes,                                    !- Apply Weekend Holiday Rule
  ,                                       !- Use Weather File Rain Indicators
  ,                                       !- Use Weather File Snow Indicators
  ;                                       !- Number of Times Runperiod to be Repeated

OS:Site,
  {e513812a-66fe-47fe-9b50-a861da166caa}, !- Handle
  CA_RIVERSIDE-MUNI_USA Design_Conditions, !- Name
  33.95,                                  !- Latitude {deg}
  -117.43,                                !- Longitude {deg}
  -8,                                     !- Time Zone {hr}
  249.0216,                               !- Elevation {m}
  ;                                       !- Terrain

OS:SizingPeriod:DesignDay,
  {552b88c6-0473-416b-ad85-441b655bc956}, !- Handle
  CA_RIVERSIDE-MUNI Ann Htg 99.6% Condns DB, !- Name
  2.5,                                    !- Maximum Dry-Bulb Temperature {C}
  0,                                      !- Daily Dry-Bulb Temperature Range {deltaC}
  2.5,                                    !- Humidity Indicating Conditions at Maximum Dry-Bulb
  98369,                                  !- Barometric Pressure {Pa}
  1.1,                                    !- Wind Speed {m/s}
  120,                                    !- Wind Direction {deg}
  0,                                      !- Sky Clearness
  0,                                      !- Rain Indicator
  0,                                      !- Snow Indicator
  21,                                     !- Day of Month
  12,                                     !- Month
  WinterDesignDay,                        !- Day Type
  0,                                      !- Daylight Saving Time Indicator
  Wetbulb,                                !- Humidity Indicating Type
  ,                                       !- Humidity Indicating Day Schedule Name
  DefaultMultipliers,                     !- Dry-Bulb Temperature Range Modifier Type
  ,                                       !- Dry-Bulb Temperature Range Modifier Schedule Name
  ASHRAEClearSky;                         !- Solar Model Indicator

OS:SizingPeriod:DesignDay,
  {57a78741-04ac-4eaf-aa97-26de1f6fca0e}, !- Handle
  CA_RIVERSIDE-MUNI Ann Clg .4% Condns DB=>MWB, !- Name
  37.9,                                   !- Maximum Dry-Bulb Temperature {C}
  16.4,                                   !- Daily Dry-Bulb Temperature Range {deltaC}
  20.7,                                   !- Humidity Indicating Conditions at Maximum Dry-Bulb
  98369,                                  !- Barometric Pressure {Pa}
  4.5,                                    !- Wind Speed {m/s}
  270,                                    !- Wind Direction {deg}
  0,                                      !- Sky Clearness
  0,                                      !- Rain Indicator
  0,                                      !- Snow Indicator
  21,                                     !- Day of Month
  8,                                      !- Month
  SummerDesignDay,                        !- Day Type
  0,                                      !- Daylight Saving Time Indicator
  Wetbulb,                                !- Humidity Indicating Type
  ,                                       !- Humidity Indicating Day Schedule Name
  DefaultMultipliers,                     !- Dry-Bulb Temperature Range Modifier Type
  ,                                       !- Dry-Bulb Temperature Range Modifier Schedule Name
  ASHRAETau,                              !- Solar Model Indicator
  ,                                       !- Beam Solar Day Schedule Name
  ,                                       !- Diffuse Solar Day Schedule Name
  0.367,                                  !- ASHRAE Taub {dimensionless}
  2.46;                                   !- ASHRAE Taud {dimensionless}

OS:SizingPeriod:DesignDay,
  {125cedac-a7b5-4346-95c9-cbab8c6c95c9}, !- Handle
  CA_RIVERSIDE-MUNI Ann Clg .4% Condns WB=>MDB, !- Name
  34.1,                                   !- Maximum Dry-Bulb Temperature {C}
  16.4,                                   !- Daily Dry-Bulb Temperature Range {deltaC}
  22.7,                                   !- Humidity Indicating Conditions at Maximum Dry-Bulb
  98369,                                  !- Barometric Pressure {Pa}
  4.5,                                    !- Wind Speed {m/s}
  270,                                    !- Wind Direction {deg}
  0,                                      !- Sky Clearness
  0,                                      !- Rain Indicator
  0,                                      !- Snow Indicator
  21,                                     !- Day of Month
  8,                                      !- Month
  SummerDesignDay,                        !- Day Type
  0,                                      !- Daylight Saving Time Indicator
  Wetbulb,                                !- Humidity Indicating Type
  ,                                       !- Humidity Indicating Day Schedule Name
  DefaultMultipliers,                     !- Dry-Bulb Temperature Range Modifier Type
  ,                                       !- Dry-Bulb Temperature Range Modifier Schedule Name
  ASHRAETau,                              !- Solar Model Indicator
  ,                                       !- Beam Solar Day Schedule Name
  ,                                       !- Diffuse Solar Day Schedule Name
  0.367,                                  !- ASHRAE Taub {dimensionless}
  2.46;                                   !- ASHRAE Taud {dimensionless}

OS:SizingPeriod:DesignDay,
  {34497222-cf33-4ad2-8291-251eee2dc242}, !- Handle
  CA_RIVERSIDE-MUNI Ann Clg .4% Condns DP=>MDB, !- Name
  27.5,                                   !- Maximum Dry-Bulb Temperature {C}
  16.4,                                   !- Daily Dry-Bulb Temperature Range {deltaC}
  18.9,                                   !- Humidity Indicating Conditions at Maximum Dry-Bulb
  98369,                                  !- Barometric Pressure {Pa}
  4.5,                                    !- Wind Speed {m/s}
  270,                                    !- Wind Direction {deg}
  0,                                      !- Sky Clearness
  0,                                      !- Rain Indicator
  0,                                      !- Snow Indicator
  21,                                     !- Day of Month
  8,                                      !- Month
  SummerDesignDay,                        !- Day Type
  0,                                      !- Daylight Saving Time Indicator
  Dewpoint,                               !- Humidity Indicating Type
  ,                                       !- Humidity Indicating Day Schedule Name
  DefaultMultipliers,                     !- Dry-Bulb Temperature Range Modifier Type
  ,                                       !- Dry-Bulb Temperature Range Modifier Schedule Name
  ASHRAETau,                              !- Solar Model Indicator
  ,                                       !- Beam Solar Day Schedule Name
  ,                                       !- Diffuse Solar Day Schedule Name
  0.367,                                  !- ASHRAE Taub {dimensionless}
  2.46;                                   !- ASHRAE Taud {dimensionless}

OS:SizingPeriod:DesignDay,
  {ffef636b-c0e9-4423-ae82-6ac0d8bdaa2f}, !- Handle
  CA_RIVERSIDE-MUNI June .4% Condns DB=>MCWB, !- Name
  36.8,                                   !- Maximum Dry-Bulb Temperature {C}
  14.8,                                   !- Daily Dry-Bulb Temperature Range {deltaC}
  20.4,                                   !- Humidity Indicating Conditions at Maximum Dry-Bulb
  98369,                                  !- Barometric Pressure {Pa}
  2.4,                                    !- Wind Speed {m/s}
  270,                                    !- Wind Direction {deg}
  0,                                      !- Sky Clearness
  0,                                      !- Rain Indicator
  0,                                      !- Snow Indicator
  21,                                     !- Day of Month
  6,                                      !- Month
  SummerDesignDay,                        !- Day Type
  0,                                      !- Daylight Saving Time Indicator
  Wetbulb,                                !- Humidity Indicating Type
  ,                                       !- Humidity Indicating Day Schedule Name
  DefaultMultipliers,                     !- Dry-Bulb Temperature Range Modifier Type
  ,                                       !- Dry-Bulb Temperature Range Modifier Schedule Name
  ASHRAETau,                              !- Solar Model Indicator
  ,                                       !- Beam Solar Day Schedule Name
  ,                                       !- Diffuse Solar Day Schedule Name
  0.362,                                  !- ASHRAE Taub {dimensionless}
  2.423;                                  !- ASHRAE Taud {dimensionless}

OS:SizingPeriod:DesignDay,
  {82941625-090c-419b-aa43-e675302293d4}, !- Handle
  CA_RIVERSIDE-MUNI July .4% Condns DB=>MCWB, !- Name
  38.7,                                   !- Maximum Dry-Bulb Temperature {C}
  15.7,                                   !- Daily Dry-Bulb Temperature Range {deltaC}
  21.9,                                   !- Humidity Indicating Conditions at Maximum Dry-Bulb
  98369,                                  !- Barometric Pressure {Pa}
  2.4,                                    !- Wind Speed {m/s}
  270,                                    !- Wind Direction {deg}
  0,                                      !- Sky Clearness
  0,                                      !- Rain Indicator
  0,                                      !- Snow Indicator
  21,                                     !- Day of Month
  7,                                      !- Month
  SummerDesignDay,                        !- Day Type
  0,                                      !- Daylight Saving Time Indicator
  Wetbulb,                                !- Humidity Indicating Type
  ,                                       !- Humidity Indicating Day Schedule Name
  DefaultMultipliers,                     !- Dry-Bulb Temperature Range Modifier Type
  ,                                       !- Dry-Bulb Temperature Range Modifier Schedule Name
  ASHRAETau,                              !- Solar Model Indicator
  ,                                       !- Beam Solar Day Schedule Name
  ,                                       !- Diffuse Solar Day Schedule Name
  0.383,                                  !- ASHRAE Taub {dimensionless}
  2.428;                                  !- ASHRAE Taud {dimensionless}

OS:SizingPeriod:DesignDay,
  {ebb4ec00-529f-4056-b070-719bf2bbf637}, !- Handle
  CA_RIVERSIDE-MUNI August .4% Condns DB=>MCWB, !- Name
  39.9,                                   !- Maximum Dry-Bulb Temperature {C}
  16.4,                                   !- Daily Dry-Bulb Temperature Range {deltaC}
  20.9,                                   !- Humidity Indicating Conditions at Maximum Dry-Bulb
  98369,                                  !- Barometric Pressure {Pa}
  2.2,                                    !- Wind Speed {m/s}
  270,                                    !- Wind Direction {deg}
  0,                                      !- Sky Clearness
  0,                                      !- Rain Indicator
  0,                                      !- Snow Indicator
  21,                                     !- Day of Month
  8,                                      !- Month
  SummerDesignDay,                        !- Day Type
  0,                                      !- Daylight Saving Time Indicator
  Wetbulb,                                !- Humidity Indicating Type
  ,                                       !- Humidity Indicating Day Schedule Name
  DefaultMultipliers,                     !- Dry-Bulb Temperature Range Modifier Type
  ,                                       !- Dry-Bulb Temperature Range Modifier Schedule Name
  ASHRAETau,                              !- Solar Model Indicator
  ,                                       !- Beam Solar Day Schedule Name
  ,                                       !- Diffuse Solar Day Schedule Name
  0.367,                                  !- ASHRAE Taub {dimensionless}
  2.46;                                   !- ASHRAE Taud {dimensionless}

OS:SizingPeriod:DesignDay,
  {947a0af5-fe2c-43f4-a84a-04136e32fbda}, !- Handle
  CA_RIVERSIDE-MUNI September .4% Condns DB=>MCWB, !- Name
  40.4,                                   !- Maximum Dry-Bulb Temperature {C}
  16.1,                                   !- Daily Dry-Bulb Temperature Range {deltaC}
  20.4,                                   !- Humidity Indicating Conditions at Maximum Dry-Bulb
  98369,                                  !- Barometric Pressure {Pa}
  1.9,                                    !- Wind Speed {m/s}
  270,                                    !- Wind Direction {deg}
  0,                                      !- Sky Clearness
  0,                                      !- Rain Indicator
  0,                                      !- Snow Indicator
  21,                                     !- Day of Month
  9,                                      !- Month
  SummerDesignDay,                        !- Day Type
  0,                                      !- Daylight Saving Time Indicator
  Wetbulb,                                !- Humidity Indicating Type
  ,                                       !- Humidity Indicating Day Schedule Name
  DefaultMultipliers,                     !- Dry-Bulb Temperature Range Modifier Type
  ,                                       !- Dry-Bulb Temperature Range Modifier Schedule Name
  ASHRAETau,                              !- Solar Model Indicator
  ,                                       !- Beam Solar Day Schedule Name
  ,                                       !- Diffuse Solar Day Schedule Name
  0.35,                                   !- ASHRAE Taub {dimensionless}
  2.494;                                  !- ASHRAE Taud {dimensionless}

OS:SizingPeriod:DesignDay,
  {a45e0050-33e1-49c1-aca1-079403ddfa4f}, !- Handle
  CA_RIVERSIDE-MUNI October .4% Condns DB=>MCWB, !- Name
  37.2,                                   !- Maximum Dry-Bulb Temperature {C}
  14.5,                                   !- Daily Dry-Bulb Temperature Range {deltaC}
  17.9,                                   !- Humidity Indicating Conditions at Maximum Dry-Bulb
  98369,                                  !- Barometric Pressure {Pa}
  1.9,                                    !- Wind Speed {m/s}
  270,                                    !- Wind Direction {deg}
  0,                                      !- Sky Clearness
  0,                                      !- Rain Indicator
  0,                                      !- Snow Indicator
  21,                                     !- Day of Month
  10,                                     !- Month
  SummerDesignDay,                        !- Day Type
  0,                                      !- Daylight Saving Time Indicator
  Wetbulb,                                !- Humidity Indicating Type
  ,                                       !- Humidity Indicating Day Schedule Name
  DefaultMultipliers,                     !- Dry-Bulb Temperature Range Modifier Type
  ,                                       !- Dry-Bulb Temperature Range Modifier Schedule Name
  ASHRAETau,                              !- Solar Model Indicator
  ,                                       !- Beam Solar Day Schedule Name
  ,                                       !- Diffuse Solar Day Schedule Name
  0.34,                                   !- ASHRAE Taub {dimensionless}
  2.493;                                  !- ASHRAE Taud {dimensionless}

OS:SizingPeriod:DesignDay,
  {20c17bad-c446-49d1-a1ab-90c1e88b83a1}, !- Handle
  CA_RIVERSIDE-MUNI November .4% Condns DB=>MCWB, !- Name
  32.5,                                   !- Maximum Dry-Bulb Temperature {C}
  14,                                     !- Daily Dry-Bulb Temperature Range {deltaC}
  14.4,                                   !- Humidity Indicating Conditions at Maximum Dry-Bulb
  98369,                                  !- Barometric Pressure {Pa}
  1.9,                                    !- Wind Speed {m/s}
  270,                                    !- Wind Direction {deg}
  0,                                      !- Sky Clearness
  0,                                      !- Rain Indicator
  0,                                      !- Snow Indicator
  21,                                     !- Day of Month
  11,                                     !- Month
  SummerDesignDay,                        !- Day Type
  0,                                      !- Daylight Saving Time Indicator
  Wetbulb,                                !- Humidity Indicating Type
  ,                                       !- Humidity Indicating Day Schedule Name
  DefaultMultipliers,                     !- Dry-Bulb Temperature Range Modifier Type
  ,                                       !- Dry-Bulb Temperature Range Modifier Schedule Name
  ASHRAETau,                              !- Solar Model Indicator
  ,                                       !- Beam Solar Day Schedule Name
  ,                                       !- Diffuse Solar Day Schedule Name
  0.305,                                  !- ASHRAE Taub {dimensionless}
  2.582;                                  !- ASHRAE Taud {dimensionless}

OS:WeatherFile,
  {60d392cb-c605-4884-9f7f-f281547a5af4}, !- Handle
  CA_RIVERSIDE-MUNI,                      !- City
  -,                                      !- State Province Region
  USA,                                    !- Country
  Custom-722869,                          !- Data Source
  722869,                                 !- WMO Number
  33.95,                                  !- Latitude {deg}
  -117.43,                                !- Longitude {deg}
  -8,                                     !- Time Zone {hr}
  249,                                    !- Elevation {m}
  file:///C:/Users/agoyal/Documents/CBECC-Com 2022 Data/EPW/CTZ10S22A.epw, !- Url
  309B2480;                               !- Checksum

OS:Sizing:Parameters,
  {6f49436e-a924-4f68-acdd-b18792990dca}, !- Handle
  1,                                      !- Heating Sizing Factor
  1;                                      !- Cooling Sizing Factor

OS:Material,
  {b47f2bcd-47b9-4a6c-a3c6-e7cd8de66584}, !- Handle
  Gypsum Board - 1/2 in.,                 !- Name
  MediumRough,                            !- Roughness
  0.0127,                                 !- Thickness {m}
  0.158656446866265,                      !- Conductivity {W/m-K}
  640.738534958406,                       !- Density {kg/m3}
  1130.436,                               !- Specific Heat {J/kg-K}
  0.9,                                    !- Thermal Absorptance
  0.7,                                    !- Solar Absorptance
  0.8;                                    !- Visible Absorptance

OS:Material,
  {e48b6e47-68af-4582-ae6e-f32bf177117a}, !- Handle
  Gypsum Board - 5/8 in.,                 !- Name
  Smooth,                                 !- Roughness
  0.016002,                               !- Thickness {m}
  0.158656446866265,                      !- Conductivity {W/m-K}
  640.738534958406,                       !- Density {kg/m3}
  1130.436,                               !- Specific Heat {J/kg-K}
  0.9,                                    !- Thermal Absorptance
  0.7,                                    !- Solar Absorptance
  0.8;                                    !- Visible Absorptance

OS:Material,
  {ae21dc89-5e2d-4c7f-984c-09900a017578}, !- Handle
  Stucco - 7/8 in.,                       !- Name
  MediumRough,                            !- Roughness
  0.022352,                               !- Thickness {m}
  0.700947539880412,                      !- Conductivity {W/m-K}
  1855.09824333832,                       !- Density {kg/m3}
  837.36,                                 !- Specific Heat {J/kg-K}
  0.9,                                    !- Thermal Absorptance
  0.7,                                    !- Solar Absorptance
  0.8;                                    !- Visible Absorptance

OS:Material,
  {5282c4d8-4844-4f25-8d29-94de1c9e1c22}, !- Handle
  Carpet - 3/4 in.,                       !- Name
  Smooth,                                 !- Roughness
  0.01905,                                !- Thickness {m}
  0.0455183217255675,                     !- Conductivity {W/m-K}
  288.332340731283,                       !- Density {kg/m3}
  1381.644,                               !- Specific Heat {J/kg-K}
  0.9,                                    !- Thermal Absorptance
  0.7,                                    !- Solar Absorptance
  0.8;                                    !- Visible Absorptance

OS:Material,
  {96cffa3f-b29e-4a96-b955-41b1d16b87de}, !- Handle
  Plywood - 5/8 in.,                      !- Name
  Smooth,                                 !- Roughness
  0.016002,                               !- Thickness {m}
  0.115440002246971,                      !- Conductivity {W/m-K}
  480.553901218804,                       !- Density {kg/m3}
  1884.06;                                !- Specific Heat {J/kg-K}

OS:Material,
  {43feb0fa-4e99-4954-985b-bb6fb1d1b7e3}, !- Handle
  Compliance Insulation R1.54,            !- Name
  Smooth,                                 !- Roughness
  0.0062429136,                           !- Thickness {m}
  0.0230187710627394,                     !- Conductivity {W/m-K}
  16.0184633739601,                       !- Density {kg/m3}
  1130.436;                               !- Specific Heat {J/kg-K}

OS:Material,
  {0fb2a1ac-3b55-4fc8-aa2a-9b38fda4f511}, !- Handle
  Compliance Insulation R1.35,            !- Name
  Smooth,                                 !- Roughness
  0.005472684,                            !- Thickness {m}
  0.0230187710627394,                     !- Conductivity {W/m-K}
  16.0184633739601,                       !- Density {kg/m3}
  1130.436;                               !- Specific Heat {J/kg-K}

OS:Material:NoMass,
  {9b362c01-0c5a-4e68-a5bc-a82e6f22afa8}, !- Handle
  WoodFrameWall16inOC R11.25,             !- Name
  Smooth,                                 !- Roughness
  1.26865197459958;                       !- Thermal Resistance {m2-K/W}

OS:Material,
  {7e95e8bc-905e-442c-ba04-c9266a8523bd}, !- Handle
  Concrete - 140 lb/ft3 - 10 in.,         !- Name
  Smooth,                                 !- Roughness
  0.254,                                  !- Thickness {m}
  1.95140333633374,                       !- Conductivity {W/m-K}
  2239.06081041215,                       !- Density {kg/m3}
  921.096,                                !- Specific Heat {J/kg-K}
  0.9,                                    !- Thermal Absorptance
  0.7,                                    !- Solar Absorptance
  0.8;                                    !- Visible Absorptance

OS:Material:NoMass,
  {cc5b0121-ad01-4f0e-85d0-49347f6f55d4}, !- Handle
  WoodRoof16OCCavInsR38,                  !- Name
  Smooth,                                 !- Roughness
  4.68171312301043,                       !- Thermal Resistance {m2-K/W}
  0.9,                                    !- Thermal Absorptance
  0.7,                                    !- Solar Absorptance
  0.8;                                    !- Visible Absorptance

OS:Material,
  {079f6c36-1b19-47c1-9d18-a4793646df7b}, !- Handle
  Building Paper - 1/16 in.,              !- Name
  Smooth,                                 !- Roughness
  0.001524,                               !- Thickness {m}
  0.28851346888411,                       !- Conductivity {W/m-K}
  96.1107802437608,                       !- Density {kg/m3}
  1256.04;                                !- Specific Heat {J/kg-K}

OS:Material,
  {4a8eda3c-a9b5-41f7-a1d1-309c2eeceaaa}, !- Handle
  Fiberboard sheathing - 1/2 in.,         !- Name
  Smooth,                                 !- Roughness
  0.0127,                                 !- Thickness {m}
  0.0706139743879526,                     !- Conductivity {W/m-K}
  399.820845814045,                       !- Density {kg/m3}
  1297.908;                               !- Specific Heat {J/kg-K}

OS:Material,
  {dbef4b8b-2195-462a-af2d-3a4f34827f8b}, !- Handle
  Roofing felt - 1/8 in.,                 !- Name
  MediumRough,                            !- Roughness
  0.001524,                               !- Thickness {m}
  1.19714916872909,                       !- Conductivity {W/m-K}
  230.665872585026,                       !- Density {kg/m3}
  1256.04,                                !- Specific Heat {J/kg-K}
  0.85,                                   !- Thermal Absorptance
  0.92,                                   !- Solar Absorptance
  0.85;                                   !- Visible Absorptance

OS:Material:NoMass,
  {925f94aa-3bc6-4b91-9881-a2d8fd73b4c9}, !- Handle
  WoodFloor16inOCCavInsR0,                !- Name
  Smooth,                                 !- Roughness
  0.162021368987722;                      !- Thermal Resistance {m2-K/W}

OS:Material,
  {218d6b44-a2da-4268-b3ad-1f7083415434}, !- Handle
  Stone - 1 in.,                          !- Name
  MediumRough,                            !- Roughness
  0.0254,                                 !- Thickness {m}
  1.80342552235899,                       !- Conductivity {W/m-K}
  2239.06081041215,                       !- Density {kg/m3}
  921.096,                                !- Specific Heat {J/kg-K}
  0.85,                                   !- Thermal Absorptance
  0.92,                                   !- Solar Absorptance
  0.85;                                   !- Visible Absorptance

OS:Material:NoMass,
  {c21f6c29-63b4-41e3-945c-bb32f754c788}, !- Handle
  WoodFraming16inOC,                      !- Name
  Smooth,                                 !- Roughness
  0.14969365612996;                       !- Thermal Resistance {m2-K/W}

OS:Material,
  {ad310537-6485-4374-8842-0955279a3fc8}, !- Handle
  Concrete - 140 lb/ft3 - 8 in.,          !- Name
  Smooth,                                 !- Roughness
  0.2032,                                 !- Thickness {m}
  1.95140333633374,                       !- Conductivity {W/m-K}
  2239.06081041215,                       !- Density {kg/m3}
  921.096;                                !- Specific Heat {J/kg-K}

OS:Material,
  {4493b9a8-95b2-446e-9fc6-299f943a81af}, !- Handle
  Concrete - 140 lb/ft3 - 4 in.,          !- Name
  Smooth,                                 !- Roughness
  0.1016,                                 !- Thickness {m}
  1.95140333633374,                       !- Conductivity {W/m-K}
  2239.06081041215,                       !- Density {kg/m3}
  921.096;                                !- Specific Heat {J/kg-K}

OS:Material,
  {f0ab4154-da63-40d3-ab3f-e61f66bc3485}, !- Handle
  Compliance Insulation R0.20,            !- Name
  Smooth,                                 !- Roughness
  0.000810768,                            !- Thickness {m}
  0.0230187710627394,                     !- Conductivity {W/m-K}
  16.0184633739601,                       !- Density {kg/m3}
  1130.436;                               !- Specific Heat {J/kg-K}

OS:Material,
  {3028fc4b-2885-488b-87f3-e7602e06e3ae}, !- Handle
  Compliance Insulation R5.00,            !- Name
  Smooth,                                 !- Roughness
  0.0202692,                              !- Thickness {m}
  0.0230187710627394,                     !- Conductivity {W/m-K}
  16.0184633739601,                       !- Density {kg/m3}
  1130.436;                               !- Specific Heat {J/kg-K}

OS:Material,
  {155fce3d-63a2-4ac2-8018-f947e5772f16}, !- Handle
  Compliance Insulation R0.10,            !- Name
  Smooth,                                 !- Roughness
  0.000405384,                            !- Thickness {m}
  0.0230187710627394,                     !- Conductivity {W/m-K}
  16.0184633739601,                       !- Density {kg/m3}
  1130.436;                               !- Specific Heat {J/kg-K}

OS:Material:NoMass,