
Version,
  9.0;                                    !- Version Identifier

Timestep,
  4;                                      !- Number of Timesteps per Hour

Building,
  Small Office,                           !- Name
  0,                                      !- North Axis {deg}
  ,                                       !- Terrain
  ,                                       !- Loads Convergence Tolerance Value
  ,                                       !- Temperature Convergence Tolerance Value {deltaC}
  MinimalShadowing,                       !- Solar Distribution
  50,                                     !- Maximum Number of Warmup Days
  ;                                       !- Minimum Number of Warmup Days

Zone,
  Attic Thermal Zone,                     !- Name
  ,                                       !- Direction of Relative North {deg}
  ,                                       !- X Origin {m}
  ,                                       !- Y Origin {m}
  ,                                       !- Z Origin {m}
  ,                                       !- Type
  1,                                      !- Multiplier
  ,                                       !- Ceiling Height {m}
  1731.19855504113,                       !- Volume {m3}
  ,                                       !- Floor Area {m2}
  ,                                       !- Zone Inside Convection Algorithm
  ;                                       !- Zone Outside Convection Algorithm

BuildingSurface:Detailed,
  Attic_floor_core,                       !- Name
  Floor,                                  !- Surface Type
  TypicalPlenumFloorInterior,             !- Construction Name
  Attic Thermal Zone,                     !- Zone Name
  Surface,                                !- Outside Boundary Condition
  Attic_floor_core Reversed,              !- Outside Boundary Condition Object
  NoSun,                                  !- Sun Exposure
  NoWind,                                 !- Wind Exposure
  ,                                       !- View Factor to Ground
  ,                                       !- Number of Vertices
  12.2334528, 0, 0,                       !- X,Y,Z Vertex 1 {m}
  12.2334528, -12.2334528, 0,             !- X,Y,Z Vertex 2 {m}
  0, -12.2334528, 0,                      !- X,Y,Z Vertex 3 {m}
  0, 0, 0;                                !- X,Y,Z Vertex 4 {m}

BuildingSurface:Detailed,
  Attic_floor_perimeter_east,             !- Name
  Floor,                                  !- Surface Type
  TypicalPlenumFloorInterior,             !- Construction Name
  Attic Thermal Zone,                     !- Zone Name
  Surface,                                !- Outside Boundary Condition
  Attic_floor_perimeter_east Reversed,    !- Outside Boundary Condition Object
  NoSun,                                  !- Sun Exposure
  NoWind,                                 !- Wind Exposure
  ,                                       !- View Factor to Ground
  ,                                       !- Number of Vertices
  7.9241904, 2.1232368, 0,                !- X,Y,Z Vertex 1 {m}
  10.0474272, -5.8009536, 0,              !- X,Y,Z Vertex 2 {m}
  2.1232368, -7.9241904, 0,               !- X,Y,Z Vertex 3 {m}
  0, 0, 0;                                !- X,Y,Z Vertex 4 {m}

BuildingSurface:Detailed,
  Attic_floor_perimeter_north,            !- Name
  Floor,                                  !- Surface Type
  TypicalPlenumFloorInterior,             !- Construction Name
  Attic Thermal Zone,                     !- Zone Name
  Surface,                                !- Outside Boundary Condition
  Attic_floor_perimeter_north Reversed,   !- Outside Boundary Condition Object
  NoSun,                                  !- Sun Exposure
  NoWind,                                 !- Wind Exposure
  ,                                       !- View Factor to Ground
  ,                                       !- Number of Vertices
  5.3257704, 9.2241624, 0,                !- X,Y,Z Vertex 1 {m}
  14.5499328, 3.898392, 0,                !- X,Y,Z Vertex 2 {m}
  9.2241624, -5.3257704, 0,               !- X,Y,Z Vertex 3 {m}
  0, 0, 0;                                !- X,Y,Z Vertex 4 {m}

BuildingSurface:Detailed,
  Attic_floor_perimeter_south,            !- Name
  Floor,                                  !- Surface Type
  TypicalPlenumFloorInterior,             !- Construction Name
  Attic Thermal Zone,                     !- Zone Name
  Surface,                                !- Outside Boundary Condition
  Attic_floor_perimeter_south Reversed,   !- Outside Boundary Condition Object
  NoSun,                                  !- Sun Exposure
  NoWind,                                 !- Wind Exposure
  ,                                       !- View Factor to Ground
  ,                                       !- Number of Vertices
  7.531608, 7.531608, 0,                  !- X,Y,Z Vertex 1 {m}
  15.063216, 0, 0,                        !- X,Y,Z Vertex 2 {m}
  7.531608, -7.531608, 0,                 !- X,Y,Z Vertex 3 {m}
  0, 0, 0;                                !- X,Y,Z Vertex 4 {m}

BuildingSurface:Detailed,
  Attic_floor_perimeter_west,             !- Name
  Floor,                                  !- Surface Type
  TypicalPlenumFloorInterior,             !- Construction Name
  Attic Thermal Zone,                     !- Zone Name
  Surface,                                !- Outside Boundary Condition
  Attic_floor_perimeter_west Reversed,    !- Outside Boundary Condition Object
  NoSun,                                  !- Sun Exposure
  NoWind,                                 !- Wind Exposure
  ,                                       !- View Factor to Ground
  ,                                       !- Number of Vertices
  7.1045832, 4.1016936, 0,                !- X,Y,Z Vertex 1 {m}
  11.2062768, -3.0028896, 0,              !- X,Y,Z Vertex 2 {m}
  4.1016936, -7.1045832, 0,               !- X,Y,Z Vertex 3 {m}
  0, 0, 0;                                !- X,Y,Z Vertex 4 {m}

BuildingSurface:Detailed,
  Attic_roof_east,                        !- Name
  Roof,                                   !- Surface Type
  SteepNonresWoodFramingAndOtherRoofU034, !- Construction Name
  Attic Thermal Zone,                     !- Zone Name
  Outdoors,                               !- Outside Boundary Condition
  ,                                       !- Outside Boundary Condition Object
  SunExposed,                             !- Sun Exposure
  WindExposed,                            !- Wind Exposure
  ,                                       !- View Factor to Ground
  ,                                       !- Number of Vertices
  -9.5740728, 0, 6.2426088,               !- X,Y,Z Vertex 1 {m}
  0, 0, 3.048,                            !- X,Y,Z Vertex 2 {m}
  0, 10.0928424, 3.048,                   !- X,Y,Z Vertex 3 {m}
  -9.5740728, 10.0928424, 6.2426088;      !- X,Y,Z Vertex 4 {m}

BuildingSurface:Detailed,
  Attic_roof_north,                       !- Name
  Roof,                                   !- Surface Type
  SteepNonresWoodFramingAndOtherRoofU034, !- Construction Name
  Attic Thermal Zone,                     !- Zone Name
  Outdoors,                               !- Outside Boundary Condition
  ,                                       !- Outside Boundary Condition Object
  SunExposed,                             !- Sun Exposure
  WindExposed,                            !- Wind Exposure
  ,                                       !- View Factor to Ground
  ,                                       !- Number of Vertices
  0, -13.3313424, 7.4962512,              !- X,Y,Z Vertex 1 {m}
  0, 0, 3.048,                            !- X,Y,Z Vertex 2 {m}
  -14.0540232, 0, 3.048,                  !- X,Y,Z Vertex 3 {m}
  -14.0540232, -13.3313424, 7.4962512;    !- X,Y,Z Vertex 4 {m}

BuildingSurface:Detailed,
  Attic_roof_south,                       !- Name
  Roof,                                   !- Surface Type
  SteepNonresWoodFramingAndOtherRoofU034, !- Construction Name
  Attic Thermal Zone,                     !- Zone Name
  Outdoors,                               !- Outside Boundary Condition
  ,                                       !- Outside Boundary Condition Object
  SunExposed,                             !- Sun Exposure
  WindExposed,                            !- Wind Exposure
  ,                                       !- View Factor to Ground
  ,                                       !- Number of Vertices
  0, 13.3313424, 7.4962512,               !- X,Y,Z Vertex 1 {m}
  0, 0, 3.048,                            !- X,Y,Z Vertex 2 {m}
  14.0540232, 0, 3.048,                   !- X,Y,Z Vertex 3 {m}
  14.0540232, 13.3313424, 7.4962512;      !- X,Y,Z Vertex 4 {m}

BuildingSurface:Detailed,
  Attic_roof_west,                        !- Name
  Roof,                                   !- Surface Type
  SteepNonresWoodFramingAndOtherRoofU034, !- Construction Name
  Attic Thermal Zone,                     !- Zone Name
  Outdoors,                               !- Outside Boundary Condition
  ,                                       !- Outside Boundary Condition Object
  SunExposed,                             !- Sun Exposure
  WindExposed,                            !- Wind Exposure
  ,                                       !- View Factor to Ground
  ,                                       !- Number of Vertices
  9.5740728, 0, 6.2426088,                !- X,Y,Z Vertex 1 {m}
  0, 0, 3.048,                            !- X,Y,Z Vertex 2 {m}
  0, -10.0928424, 3.048,                  !- X,Y,Z Vertex 3 {m}
  9.5740728, -10.0928424, 6.2426088;      !- X,Y,Z Vertex 4 {m}

BuildingSurface:Detailed,
  Attic_soffit_east,                      !- Name
  Floor,                                  !- Surface Type
  OtherFloorU071,                         !- Construction Name
  Attic Thermal Zone,                     !- Zone Name
  Outdoors,                               !- Outside Boundary Condition
  ,                                       !- Outside Boundary Condition Object
  SunExposed,                             !- Sun Exposure
  WindExposed,                            !- Wind Exposure
  ,                                       !- View Factor to Ground
  ,                                       !- Number of Vertices
  -0.8753856, 3.2665416, 0,               !- X,Y,Z Vertex 1 {m}
  0, 0, 0,                                !- X,Y,Z Vertex 2 {m}
  -3.2665416, -0.8753856, 0,              !- X,Y,Z Vertex 3 {m}
  -4.1419272, 2.391156, 0;                !- X,Y,Z Vertex 4 {m}

BuildingSurface:Detailed,
  Attic_soffit_north,                     !- Name
  Floor,                                  !- Surface Type
  OtherFloorU071,                         !- Construction Name
  Attic Thermal Zone,                     !- Zone Name
  Outdoors,                               !- Outside Boundary Condition
  ,                                       !- Outside Boundary Condition Object
  SunExposed,                             !- Sun Exposure
  WindExposed,                            !- Wind Exposure
  ,                                       !- View Factor to Ground
  ,                                       !- Number of Vertices
  0, 4.1199816, 0,                        !- X,Y,Z Vertex 1 {m}
  0, 0, 0,                                !- X,Y,Z Vertex 2 {m}
  -4.1199816, 0, 0,                       !- X,Y,Z Vertex 3 {m}
  -4.1199816, 4.1199816, 0;               !- X,Y,Z Vertex 4 {m}

BuildingSurface:Detailed,
  Attic_soffit_south,                     !- Name
  Floor,                                  !- Surface Type
  OtherFloorU071,                         !- Construction Name
  Attic Thermal Zone,                     !- Zone Name
  Outdoors,                               !- Outside Boundary Condition
  ,                                       !- Outside Boundary Condition Object
  SunExposed,                             !- Sun Exposure
  WindExposed,                            !- Wind Exposure
  ,                                       !- View Factor to Ground
  ,                                       !- Number of Vertices
  -2.9132784, 2.9132784, 0,               !- X,Y,Z Vertex 1 {m}
  0, 0, 0,                                !- X,Y,Z Vertex 2 {m}
  -2.9132784, -2.9132784, 0,              !- X,Y,Z Vertex 3 {m}
  -5.8265568, 0, 0;                       !- X,Y,Z Vertex 4 {m}

BuildingSurface:Detailed,
  Attic_soffit_west,                      !- Name
  Floor,                                  !- Surface Type
  OtherFloorU071,                         !- Construction Name
  Attic Thermal Zone,                     !- Zone Name
  Outdoors,                               !- Outside Boundary Condition
  ,                                       !- Outside Boundary Condition Object
  SunExposed,                             !- Sun Exposure
  WindExposed,                            !- Wind Exposure
  ,                                       !- View Factor to Ground
  ,                                       !- Number of Vertices
  -1.6907256, 2.9285184, 0,               !- X,Y,Z Vertex 1 {m}
  0, 0, 0,                                !- X,Y,Z Vertex 2 {m}
  -2.9285184, -1.6907256, 0,              !- X,Y,Z Vertex 3 {m}
  -4.619244, 1.2377928, 0;                !- X,Y,Z Vertex 4 {m}

ZoneInfiltration:DesignFlowRate,
  Attic Space Infiltration Design Flow Rate 1, !- Name
  Attic Thermal Zone,                     !- Zone or ZoneList Name
  On,                                     !- Schedule Name
  Flow/ExteriorWallArea,                  !- Design Flow Rate Calculation Method
  ,                                       !- Design Flow Rate {m3/s}
  ,                                       !- Flow per Zone Floor Area {m3/s-m2}
  0.000227584,                            !- Flow per Exterior Surface Area {m3/s-m2}
  ,                                       !- Air Changes per Hour {1/hr}
  0,                                      !- Constant Term Coefficient
  0,                                      !- Temperature Term Coefficient
  0.224051539012169,                      !- Velocity Term Coefficient
  0;                                      !- Velocity Squared Term Coefficient

Zone,
  Core_ZN Thermal Zone,                   !- Name
  ,                                       !- Direction of Relative North {deg}
  ,                                       !- X Origin {m}
  ,                                       !- Y Origin {m}
  ,                                       !- Z Origin {m}
  ,                                       !- Type
  1,                                      !- Multiplier
  ,                                       !- Ceiling Height {m}
  456.156081750528,                       !- Volume {m3}
  ,                                       !- Floor Area {m2}
  ,                                       !- Zone Inside Convection Algorithm
  ;                                       !- Zone Outside Convection Algorithm

BuildingSurface:Detailed,
  Attic_floor_core Reversed,              !- Name
  Ceiling,                                !- Surface Type
  TypicalPlenumFloorInterior,             !- Construction Name
  Core_ZN Thermal Zone,                   !- Zone Name
  Surface,                                !- Outside Boundary Condition
  Attic_floor_core,                       !- Outside Boundary Condition Object
  NoSun,                                  !- Sun Exposure
  NoWind,                                 !- Wind Exposure
  ,                                       !- View Factor to Ground
  ,                                       !- Number of Vertices
  12.2334528, -12.2334528, 0,             !- X,Y,Z Vertex 1 {m}
  12.2334528, 0, 0,                       !- X,Y,Z Vertex 2 {m}
  0, 0, 0,                                !- X,Y,Z Vertex 3 {m}
  0, -12.2334528, 0;                      !- X,Y,Z Vertex 4 {m}

BuildingSurface:Detailed,
  Core_ZN_floor,                          !- Name
  Floor,                                  !- Surface Type
  Core_ZN_floor SlabOnOrBelowGradeF073,   !- Construction Name
  Core_ZN Thermal Zone,                   !- Zone Name
  GroundFCfactorMethod,                   !- Outside Boundary Condition
  ,                                       !- Outside Boundary Condition Object
  NoSun,                                  !- Sun Exposure
  NoWind,                                 !- Wind Exposure
  ,                                       !- View Factor to Ground
  ,                                       !- Number of Vertices
  6.1167264, 10.5945432, 0,               !- X,Y,Z Vertex 1 {m}
  16.7112696, 4.4778168, 0,               !- X,Y,Z Vertex 2 {m}
  10.5945432, -6.1167264, 0,              !- X,Y,Z Vertex 3 {m}
  0, 0, 0;                                !- X,Y,Z Vertex 4 {m}

BuildingSurface:Detailed,
  Core_ZN_wall_east,                      !- Name
  Wall,                                   !- Surface Type
  MetalFrameWallInterior,                 !- Construction Name
  Core_ZN Thermal Zone,                   !- Zone Name
  Surface,                                !- Outside Boundary Condition
  Core_ZN_wall_east Reversed,             !- Outside Boundary Condition Object
  NoSun,                                  !- Sun Exposure
  NoWind,                                 !- Wind Exposure
  ,                                       !- View Factor to Ground
  ,                                       !- Number of Vertices
  0, 0, 3.048,                            !- X,Y,Z Vertex 1 {m}
  0, 0, 0,                                !- X,Y,Z Vertex 2 {m}
  -2.1909024, -8.1771744, 0,              !- X,Y,Z Vertex 3 {m}
  -2.1909024, -8.1771744, 3.048;          !- X,Y,Z Vertex 4 {m}

BuildingSurface:Detailed,
  Perimeter_ZN_1_wall_north Reversed,     !- Name
  Wall,                                   !- Surface Type
  MetalFrameWallInterior,                 !- Construction Name
  Core_ZN Thermal Zone,                   !- Zone Name
  Surface,                                !- Outside Boundary Condition
  Perimeter_ZN_1_wall_north,              !- Outside Boundary Condition Object
  NoSun,                                  !- Sun Exposure
  NoWind,                                 !- Wind Exposure
  ,                                       !- View Factor to Ground
  ,                                       !- Number of Vertices
  -17.0983656, -4.5814488, 3.048,         !- X,Y,Z Vertex 1 {m}
  -17.0983656, -4.5814488, 0,             !- X,Y,Z Vertex 2 {m}
  0, 0, 0,                                !- X,Y,Z Vertex 3 {m}
  0, 0, 3.048;                            !- X,Y,Z Vertex 4 {m}

BuildingSurface:Detailed,
  Perimeter_ZN_3_wall_south Reversed,     !- Name
  Wall,                                   !- Surface Type
  MetalFrameWallInterior,                 !- Construction Name
  Core_ZN Thermal Zone,                   !- Zone Name
  Surface,                                !- Outside Boundary Condition
  Perimeter_ZN_3_wall_south,              !- Outside Boundary Condition Object
  NoSun,                                  !- Sun Exposure
  NoWind,                                 !- Wind Exposure
  ,                                       !- View Factor to Ground
  ,                                       !- Number of Vertices
  -14.5002504, -10.1531928, 3.048,        !- X,Y,Z Vertex 1 {m}
  -14.5002504, -10.1531928, 0,            !- X,Y,Z Vertex 2 {m}
  0, 0, 0,                                !- X,Y,Z Vertex 3 {m}
  0, 0, 3.048;                            !- X,Y,Z Vertex 4 {m}

BuildingSurface:Detailed,
  Perimeter_ZN_4_wall_east Reversed,      !- Name
  Wall,                                   !- Surface Type
  MetalFrameWallInterior,                 !- Construction Name
  Core_ZN Thermal Zone,                   !- Zone Name
  Surface,                                !- Outside Boundary Condition
  Perimeter_ZN_4_wall_east,               !- Outside Boundary Condition Object
  NoSun,                                  !- Sun Exposure
  NoWind,                                 !- Wind Exposure
  ,                                       !- View Factor to Ground
  ,                                       !- Number of Vertices
  -4.8557688, -6.9345048, 3.048,          !- X,Y,Z Vertex 1 {m}
  -4.8557688, -6.9345048, 0,              !- X,Y,Z Vertex 2 {m}
  0, 0, 0,                                !- X,Y,Z Vertex 3 {m}
  0, 0, 3.048;                            !- X,Y,Z Vertex 4 {m}

People,
  Core_ZN People,                         !- Name
  Core_ZN Thermal Zone,                   !- Zone or ZoneList Name
  OfficeOccupancy,                        !- Number of People Schedule Name
  People/Area,                            !- Number of People Calculation Method
  ,                                       !- Number of People
  0.0538195520835486,                     !- People per Zone Floor Area {person/m2}
  ,                                       !- Zone Floor Area per Person {m2/person}
  0.3,                                    !- Fraction Radiant
  0.555555555555556,                      !- Sensible Heat Fraction
  Core_ZN People Activity Level;          !- Activity Level Schedule Name

Lights,
  Core_ZN Regulated Lights,               !- Name
  Core_ZN Thermal Zone,                   !- Zone or ZoneList Name
  OfficeLights,                           !- Schedule Name
  Watts/Area,                             !- Design Level Calculation Method
  ,                                       !- Lighting Level {W}
  6.45834625002582,                       !- Watts per Zone Floor Area {W/m2}
  ,                                       !- Watts per Person {W/person}
  0,                                      !- Return Air Fraction
  0.58,                                   !- Fraction Radiant
  ,                                       !- Fraction Visible
  1,                                      !- Fraction Replaceable
  ComplianceLtg;                          !- End-Use Subcategory

Schedule:Year,
  OfficeLights,                           !- Name
  Fraction,                               !- Schedule Type Limits Name
  OfficeLightsWk,                         !- Schedule:Week Name 1
  1,                                      !- Start Month 1
  1,                                      !- Start Day 1
  12,                                     !- End Month 1
  31;                                     !- End Day 1

ScheduleTypeLimits,
  Fraction,                               !- Name
  0,                                      !- Lower Limit Value {BasedOnField A3}
  1,                                      !- Upper Limit Value {BasedOnField A3}
  Continuous,                             !- Numeric Type
  dimensionless;                          !- Unit Type

Schedule:Week:Daily,
  OfficeLightsWk,                         !- Name
  OfficeLightsSun,                        !- Sunday Schedule:Day Name
  OfficeLightsWD,                         !- Monday Schedule:Day Name
  OfficeLightsWD,                         !- Tuesday Schedule:Day Name
  OfficeLightsWD,                         !- Wednesday Schedule:Day Name
  OfficeLightsWD,                         !- Thursday Schedule:Day Name
  OfficeLightsWD,                         !- Friday Schedule:Day Name
  OfficeLightsSat,                        !- Saturday Schedule:Day Name
  OfficeLightsSun,                        !- Holiday Schedule:Day Name
  OnDay,                                  !- SummerDesignDay Schedule:Day Name
  OffDay,                                 !- WinterDesignDay Schedule:Day Name
  OfficeLightsSun,                        !- CustomDay1 Schedule:Day Name
  OfficeLightsSun;                        !- CustomDay2 Schedule:Day Name

Schedule:Day:Interval,
  OfficeLightsSun,                        !- Name
  Fraction,                               !- Schedule Type Limits Name
  No,                                     !- Interpolate to Timestep
  01:00,                                  !- Time 1 {hh:mm}
  0.05,                                   !- Value Until Time 1
  02:00,                                  !- Time 2 {hh:mm}
  0.05,                                   !- Value Until Time 2
  03:00,                                  !- Time 3 {hh:mm}
  0.05,                                   !- Value Until Time 3
  04:00,                                  !- Time 4 {hh:mm}
  0.05,                                   !- Value Until Time 4
  05:00,                                  !- Time 5 {hh:mm}
  0.05,                                   !- Value Until Time 5
  06:00,                                  !- Time 6 {hh:mm}
  0.05,                                   !- Value Until Time 6
  07:00,                                  !- Time 7 {hh:mm}
  0.05,                                   !- Value Until Time 7
  08:00,                                  !- Time 8 {hh:mm}
  0.05,                                   !- Value Until Time 8
  09:00,                                  !- Time 9 {hh:mm}
  0.05,                                   !- Value Until Time 9
  10:00,                                  !- Time 10 {hh:mm}
  0.05,                                   !- Value Until Time 10
  11:00,                                  !- Time 11 {hh:mm}
  0.05,                                   !- Value Until Time 11
  12:00,                                  !- Time 12 {hh:mm}
  0.05,                                   !- Value Until Time 12
  13:00,                                  !- Time 13 {hh:mm}
  0.05,                                   !- Value Until Time 13
  14:00,                                  !- Time 14 {hh:mm}
  0.05,                                   !- Value Until Time 14
  15:00,                                  !- Time 15 {hh:mm}
  0.05,                                   !- Value Until Time 15
  16:00,                                  !- Time 16 {hh:mm}
  0.05,                                   !- Value Until Time 16
  17:00,                                  !- Time 17 {hh:mm}
  0.05,                                   !- Value Until Time 17
  18:00,                                  !- Time 18 {hh:mm}
  0.05,                                   !- Value Until Time 18
  19:00,                                  !- Time 19 {hh:mm}
  0.05,                                   !- Value Until Time 19
  20:00,                                  !- Time 20 {hh:mm}
  0.05,                                   !- Value Until Time 20
  21:00,                                  !- Time 21 {hh:mm}
  0.05,                                   !- Value Until Time 21
  22:00,                                  !- Time 22 {hh:mm}
  0.05,                                   !- Value Until Time 22
  23:00,                                  !- Time 23 {hh:mm}
  0.05,                                   !- Value Until Time 23
  24:00,                                  !- Time 24 {hh:mm}
  0.05;                                   !- Value Until Time 24

Schedule:Day:Interval,
  OfficeLightsWD,                         !- Name
  Fraction,                               !- Schedule Type Limits Name
  No,                                     !- Interpolate to Timestep
  01:00,                                  !- Time 1 {hh:mm}
  0.05,                                   !- Value Until Time 1
  02:00,                                  !- Time 2 {hh:mm}
  0.05,                                   !- Value Until Time 2
  03:00,                                  !- Time 3 {hh:mm}
  0.05,                                   !- Value Until Time 3
  04:00,                                  !- Time 4 {hh:mm}
  0.05,                                   !- Value Until Time 4
  05:00,                                  !- Time 5 {hh:mm}
  0.05,                                   !- Value Until Time 5
  06:00,                                  !- Time 6 {hh:mm}
  0.1,                                    !- Value Until Time 6
  07:00,                                  !- Time 7 {hh:mm}
  0.1,                                    !- Value Until Time 7
  08:00,                                  !- Time 8 {hh:mm}
  0.3,                                    !- Value Until Time 8
  09:00,                                  !- Time 9 {hh:mm}
  0.65,                                   !- Value Until Time 9
  10:00,                                  !- Time 10 {hh:mm}
  0.65,                                   !- Value Until Time 10
  11:00,                                  !- Time 11 {hh:mm}
  0.65,                                   !- Value Until Time 11
  12:00,                                  !- Time 12 {hh:mm}
  0.65,                                   !- Value Until Time 12
  13:00,                                  !- Time 13 {hh:mm}
  0.65,                                   !- Value Until Time 13
  14:00,                                  !- Time 14 {hh:mm}
  0.65,                                   !- Value Until Time 14
  15:00,                                  !- Time 15 {hh:mm}
  0.65,                                   !- Value Until Time 15
  16:00,                                  !- Time 16 {hh:mm}
  0.65,                                   !- Value Until Time 16
  17:00,                                  !- Time 17 {hh:mm}
  0.65,                                   !- Value Until Time 17
  18:00,                                  !- Time 18 {hh:mm}
  0.35,                                   !- Value Until Time 18
  19:00,                                  !- Time 19 {hh:mm}
  0.3,                                    !- Value Until Time 19
  20:00,                                  !- Time 20 {hh:mm}
  0.3,                                    !- Value Until Time 20
  21:00,                                  !- Time 21 {hh:mm}
  0.2,                                    !- Value Until Time 21
  22:00,                                  !- Time 22 {hh:mm}
  0.2,                                    !- Value Until Time 22
  23:00,                                  !- Time 23 {hh:mm}
  0.1,                                    !- Value Until Time 23
  24:00,                                  !- Time 24 {hh:mm}