
OS:Version,
  {5dbb684d-bd1d-4440-a16c-c6831fe492ca}, !- Handle
  2.7.2;                                  !- Version Identifier

OS:SimulationControl,
  {8db7c4cf-064f-4b11-ac04-2d479cc3fb9a}, !- Handle
  ,                                       !- Do Zone Sizing Calculation
  ,                                       !- Do System Sizing Calculation
  ,                                       !- Do Plant Sizing Calculation
  Yes,                                    !- Run Simulation for Sizing Periods
  No,                                     !- Run Simulation for Weather File Run Periods
  ,                                       !- Loads Convergence Tolerance Value
  ,                                       !- Temperature Convergence Tolerance Value {deltaC}
  FullExterior,                           !- Solar Distribution
  50;                                     !- Maximum Number of Warmup Days

OS:Site,
  {83375c4b-5557-450d-97ed-e002dfd76bae}, !- Handle
  ARCATA-AIRPORT Design_Conditions,       !- Name
  40.97,                                  !- Latitude {deg}
  -124.08,                                !- Longitude {deg}
  -8,                                     !- Time Zone {hr}
  60.96,                                  !- Elevation {m}
  ;                                       !- Terrain

OS:SizingPeriod:DesignDay,
  {e2dedf41-6fcd-4842-91f0-5dd94688c287}, !- Handle
  ARCATA-AIRPORT Ann Htg 99.6% Condns DB, !- Name
  -0.1,                                   !- Maximum Dry-Bulb Temperature {C}
  0,                                      !- Daily Dry-Bulb Temperature Range {deltaC}
  -0.1,                                   !- Humidity Indicating Conditions at Maximum Dry-Bulb
  100594,                                 !- Barometric Pressure {Pa}
  1.6,                                    !- Wind Speed {m/s}
  90,                                     !- Wind Direction {deg}
  0,                                      !- Sky Clearness
  0,                                      !- Rain Indicator
  0,                                      !- Snow Indicator
  21,                                     !- Day of Month
  1,                                      !- Month
  WinterDesignDay,                        !- Day Type
  0,                                      !- Daylight Saving Time Indicator
  Wetbulb,                                !- Humidity Indicating Type
  ,                                       !- Humidity Indicating Day Schedule Name
  DefaultMultipliers,                     !- Dry-Bulb Temperature Range Modifier Type
  ,                                       !- Dry-Bulb Temperature Range Modifier Schedule Name
  ASHRAEClearSky;                         !- Solar Model Indicator

OS:SizingPeriod:DesignDay,
  {c0f06cb1-e8a4-4303-a532-7ec9546e70c6}, !- Handle
  ARCATA-AIRPORT Ann Clg 0.4% Condns DB=>MCWB, !- Name
  22,                                     !- Maximum Dry-Bulb Temperature {C}
  5.5,                                    !- Daily Dry-Bulb Temperature Range {deltaC}
  16.6,                                   !- Humidity Indicating Conditions at Maximum Dry-Bulb
  100594,                                 !- Barometric Pressure {Pa}
  5.2,                                    !- Wind Speed {m/s}
  0,                                      !- Wind Direction {deg}
  0,                                      !- Sky Clearness
  0,                                      !- Rain Indicator
  0,                                      !- Snow Indicator
  21,                                     !- Day of Month
  8,                                      !- Month
  SummerDesignDay,                        !- Day Type
  0,                                      !- Daylight Saving Time Indicator
  Wetbulb,                                !- Humidity Indicating Type
  ,                                       !- Humidity Indicating Day Schedule Name
  DefaultMultipliers,                     !- Dry-Bulb Temperature Range Modifier Type
  ,                                       !- Dry-Bulb Temperature Range Modifier Schedule Name
  ASHRAETau,                              !- Solar Model Indicator
  ,                                       !- Beam Solar Day Schedule Name
  ,                                       !- Diffuse Solar Day Schedule Name
  0.365,                                  !- ASHRAE Taub {dimensionless}
  2.512;                                  !- ASHRAE Taud {dimensionless}

OS:SizingPeriod:DesignDay,
  {7dc60494-3734-4781-be55-8fe08eddbca3}, !- Handle
  ARCATA-AIRPORT Ann Clg 0.4% Condns DP=>MCDB, !- Name
  17.8,                                   !- Maximum Dry-Bulb Temperature {C}
  5.5,                                    !- Daily Dry-Bulb Temperature Range {deltaC}
  16,                                     !- Humidity Indicating Conditions at Maximum Dry-Bulb
  100594,                                 !- Barometric Pressure {Pa}
  2.3,                                    !- Wind Speed {m/s}
  0,                                      !- Wind Direction {deg}
  0,                                      !- Sky Clearness
  0,                                      !- Rain Indicator
  0,                                      !- Snow Indicator
  21,                                     !- Day of Month
  8,                                      !- Month
  SummerDesignDay,                        !- Day Type
  0,                                      !- Daylight Saving Time Indicator
  Dewpoint,                               !- Humidity Indicating Type
  ,                                       !- Humidity Indicating Day Schedule Name
  DefaultMultipliers,                     !- Dry-Bulb Temperature Range Modifier Type
  ,                                       !- Dry-Bulb Temperature Range Modifier Schedule Name
  ASHRAETau,                              !- Solar Model Indicator
  ,                                       !- Beam Solar Day Schedule Name
  ,                                       !- Diffuse Solar Day Schedule Name
  0.365,                                  !- ASHRAE Taub {dimensionless}
  2.512;                                  !- ASHRAE Taud {dimensionless}

OS:SizingPeriod:DesignDay,
  {42334cfc-fa51-4069-a07a-480b7eb982a5}, !- Handle
  ARCATA-AIRPORT JUN Clg 0.4% Condns DB=>MCWB, !- Name
  21.1,                                   !- Maximum Dry-Bulb Temperature {C}
  4.1,                                    !- Daily Dry-Bulb Temperature Range {deltaC}
  16.6,                                   !- Humidity Indicating Conditions at Maximum Dry-Bulb
  100594,                                 !- Barometric Pressure {Pa}
  4,                                      !- Wind Speed {m/s}
  315,                                    !- Wind Direction {deg}
  0,                                      !- Sky Clearness
  0,                                      !- Rain Indicator
  0,                                      !- Snow Indicator
  21,                                     !- Day of Month
  6,                                      !- Month
  SummerDesignDay,                        !- Day Type
  0,                                      !- Daylight Saving Time Indicator
  Wetbulb,                                !- Humidity Indicating Type
  ,                                       !- Humidity Indicating Day Schedule Name
  DefaultMultipliers,                     !- Dry-Bulb Temperature Range Modifier Type
  ,                                       !- Dry-Bulb Temperature Range Modifier Schedule Name
  ASHRAETau,                              !- Solar Model Indicator
  ,                                       !- Beam Solar Day Schedule Name
  ,                                       !- Diffuse Solar Day Schedule Name
  0.357,                                  !- ASHRAE Taub {dimensionless}
  2.539;                                  !- ASHRAE Taud {dimensionless}

OS:SizingPeriod:DesignDay,
  {5687e62c-8406-4d35-ab76-cf0d04bfd360}, !- Handle
  ARCATA-AIRPORT JUL Clg 0.4% Condns DB=>MCWB, !- Name
  20.9,                                   !- Maximum Dry-Bulb Temperature {C}
  4.8,                                    !- Daily Dry-Bulb Temperature Range {deltaC}
  16.5,                                   !- Humidity Indicating Conditions at Maximum Dry-Bulb
  100594,                                 !- Barometric Pressure {Pa}
  4.2,                                    !- Wind Speed {m/s}
  270,                                    !- Wind Direction {deg}
  0,                                      !- Sky Clearness
  0,                                      !- Rain Indicator
  0,                                      !- Snow Indicator
  21,                                     !- Day of Month
  7,                                      !- Month
  SummerDesignDay,                        !- Day Type
  0,                                      !- Daylight Saving Time Indicator
  Wetbulb,                                !- Humidity Indicating Type
  ,                                       !- Humidity Indicating Day Schedule Name
  DefaultMultipliers,                     !- Dry-Bulb Temperature Range Modifier Type
  ,                                       !- Dry-Bulb Temperature Range Modifier Schedule Name
  ASHRAETau,                              !- Solar Model Indicator
  ,                                       !- Beam Solar Day Schedule Name
  ,                                       !- Diffuse Solar Day Schedule Name
  0.366,                                  !- ASHRAE Taub {dimensionless}
  2.512;                                  !- ASHRAE Taud {dimensionless}

OS:SizingPeriod:DesignDay,
  {ddb5b724-475c-4458-a34d-016d7ebfc57a}, !- Handle
  ARCATA-AIRPORT AUG Clg 0.4% Condns DB=>MCWB, !- Name
  22,                                     !- Maximum Dry-Bulb Temperature {C}
  5.5,                                    !- Daily Dry-Bulb Temperature Range {deltaC}
  16.5,                                   !- Humidity Indicating Conditions at Maximum Dry-Bulb
  100594,                                 !- Barometric Pressure {Pa}
  7,                                      !- Wind Speed {m/s}
  337,                                    !- Wind Direction {deg}
  0,                                      !- Sky Clearness
  0,                                      !- Rain Indicator
  0,                                      !- Snow Indicator
  21,                                     !- Day of Month
  8,                                      !- Month
  SummerDesignDay,                        !- Day Type
  0,                                      !- Daylight Saving Time Indicator
  Wetbulb,                                !- Humidity Indicating Type
  ,                                       !- Humidity Indicating Day Schedule Name
  DefaultMultipliers,                     !- Dry-Bulb Temperature Range Modifier Type
  ,                                       !- Dry-Bulb Temperature Range Modifier Schedule Name
  ASHRAETau,                              !- Solar Model Indicator
  ,                                       !- Beam Solar Day Schedule Name
  ,                                       !- Diffuse Solar Day Schedule Name
  0.365,                                  !- ASHRAE Taub {dimensionless}
  2.512;                                  !- ASHRAE Taud {dimensionless}

OS:SizingPeriod:DesignDay,
  {ddb0c500-e391-47da-a4d0-e6b7c7a25fbc}, !- Handle
  ARCATA-AIRPORT SEP Clg 0.4% Condns DB=>MCWB, !- Name
  25.2,                                   !- Maximum Dry-Bulb Temperature {C}
  4.7,                                    !- Daily Dry-Bulb Temperature Range {deltaC}
  16.8,                                   !- Humidity Indicating Conditions at Maximum Dry-Bulb
  100594,                                 !- Barometric Pressure {Pa}
  5,                                      !- Wind Speed {m/s}
  0,                                      !- Wind Direction {deg}
  0,                                      !- Sky Clearness
  0,                                      !- Rain Indicator
  0,                                      !- Snow Indicator
  21,                                     !- Day of Month
  9,                                      !- Month
  SummerDesignDay,                        !- Day Type
  0,                                      !- Daylight Saving Time Indicator
  Wetbulb,                                !- Humidity Indicating Type
  ,                                       !- Humidity Indicating Day Schedule Name
  DefaultMultipliers,                     !- Dry-Bulb Temperature Range Modifier Type
  ,                                       !- Dry-Bulb Temperature Range Modifier Schedule Name
  ASHRAETau,                              !- Solar Model Indicator
  ,                                       !- Beam Solar Day Schedule Name
  ,                                       !- Diffuse Solar Day Schedule Name
  0.35,                                   !- ASHRAE Taub {dimensionless}
  2.596;                                  !- ASHRAE Taud {dimensionless}

OS:SizingPeriod:DesignDay,
  {23a25220-4baf-4554-ad64-03dccc865507}, !- Handle
  ARCATA-AIRPORT OCT Clg 0.4% Condns DB=>MCWB, !- Name
  24.4,                                   !- Maximum Dry-Bulb Temperature {C}
  5.8,                                    !- Daily Dry-Bulb Temperature Range {deltaC}
  15.1,                                   !- Humidity Indicating Conditions at Maximum Dry-Bulb
  100594,                                 !- Barometric Pressure {Pa}
  1.6,                                    !- Wind Speed {m/s}
  315,                                    !- Wind Direction {deg}
  0,                                      !- Sky Clearness
  0,                                      !- Rain Indicator
  0,                                      !- Snow Indicator
  21,                                     !- Day of Month
  10,                                     !- Month
  SummerDesignDay,                        !- Day Type
  0,                                      !- Daylight Saving Time Indicator
  Wetbulb,                                !- Humidity Indicating Type
  ,                                       !- Humidity Indicating Day Schedule Name
  DefaultMultipliers,                     !- Dry-Bulb Temperature Range Modifier Type
  ,                                       !- Dry-Bulb Temperature Range Modifier Schedule Name
  ASHRAETau,                              !- Solar Model Indicator
  ,                                       !- Beam Solar Day Schedule Name
  ,                                       !- Diffuse Solar Day Schedule Name
  0.34,                                   !- ASHRAE Taub {dimensionless}
  2.583;                                  !- ASHRAE Taud {dimensionless}

OS:SizingPeriod:DesignDay,
  {622d5a3e-6a46-464a-96da-86c41e1e949c}, !- Handle
  ARCATA-AIRPORT NOV Clg 0.4% Condns DB=>MCWB, !- Name
  20.8,                                   !- Maximum Dry-Bulb Temperature {C}
  4.6,                                    !- Daily Dry-Bulb Temperature Range {deltaC}
  13.1,                                   !- Humidity Indicating Conditions at Maximum Dry-Bulb
  100594,                                 !- Barometric Pressure {Pa}
  1.8,                                    !- Wind Speed {m/s}
  67,                                     !- Wind Direction {deg}
  0,                                      !- Sky Clearness
  0,                                      !- Rain Indicator
  0,                                      !- Snow Indicator
  21,                                     !- Day of Month
  11,                                     !- Month
  SummerDesignDay,                        !- Day Type
  0,                                      !- Daylight Saving Time Indicator
  Wetbulb,                                !- Humidity Indicating Type
  ,                                       !- Humidity Indicating Day Schedule Name
  DefaultMultipliers,                     !- Dry-Bulb Temperature Range Modifier Type
  ,                                       !- Dry-Bulb Temperature Range Modifier Schedule Name
  ASHRAETau,                              !- Solar Model Indicator
  ,                                       !- Beam Solar Day Schedule Name
  ,                                       !- Diffuse Solar Day Schedule Name
  0.329,                                  !- ASHRAE Taub {dimensionless}
  2.592;                                  !- ASHRAE Taud {dimensionless}

OS:WeatherFile,
  {6ae90529-680f-4134-8698-4d1a053be3b1}, !- Handle
  ARCATA-AP,                              !- City
  -,                                      !- State Province Region
  USA,                                    !- Country
  Custom-725945,                          !- Data Source
  725945,                                 !- WMO Number
  40.98,                                  !- Latitude {deg}
  -124.1,                                 !- Longitude {deg}
  -8,                                     !- Time Zone {hr}
  62,                                     !- Elevation {m}
  file:///C:/Users/mnakajima/Documents/CBECC-Com 2019 Data/EPW/ARCATA_725945_CZ2010.epw, !- Url
  A7DF346E;                               !- Checksum

OS:Sizing:Parameters,
  {cb1a3e07-70a5-4473-bca3-c4c8fc672797}, !- Handle
  1,                                      !- Heating Sizing Factor
  1;                                      !- Cooling Sizing Factor

OS:Material,
  {58eecb2e-458c-49fe-9ba2-3f267d252a67}, !- Handle
  Gypsum Board - 1/2 in.,                 !- Name
  Smooth,                                 !- Roughness
  0.0127,                                 !- Thickness {m}
  0.158656446866265,                      !- Conductivity {W/m-K}
  640.738534958406,                       !- Density {kg/m3}
  1130.436,                               !- Specific Heat {J/kg-K}
  0.9,                                    !- Thermal Absorptance
  0.7,                                    !- Solar Absorptance
  0.8;                                    !- Visible Absorptance

OS:Material,
  {da38da3b-0cb1-43d2-ac03-41469edfc98f}, !- Handle
  Gypsum Board - 5/8 in.,                 !- Name
  MediumRough,                            !- Roughness
  0.016002,                               !- Thickness {m}
  0.158656446866265,                      !- Conductivity {W/m-K}
  640.738534958406,                       !- Density {kg/m3}
  1130.436,                               !- Specific Heat {J/kg-K}
  0.9,                                    !- Thermal Absorptance
  0.7,                                    !- Solar Absorptance
  0.8;                                    !- Visible Absorptance

OS:Material,
  {a7f9b143-e9cd-40a7-b4ca-6fc89e65aeee}, !- Handle
  Stucco - 7/8 in.,                       !- Name
  MediumRough,                            !- Roughness
  0.022352,                               !- Thickness {m}
  0.700947539880412,                      !- Conductivity {W/m-K}
  1855.09824333832,                       !- Density {kg/m3}
  837.36,                                 !- Specific Heat {J/kg-K}
  0.9,                                    !- Thermal Absorptance
  0.7,                                    !- Solar Absorptance
  0.8;                                    !- Visible Absorptance

OS:Material,
  {431d3de1-77fe-4739-99b8-8b4c4efb3f03}, !- Handle
  Carpet - 3/4 in.,                       !- Name
  Smooth,                                 !- Roughness
  0.01905,                                !- Thickness {m}
  0.0455183217255675,                     !- Conductivity {W/m-K}
  288.332340731283,                       !- Density {kg/m3}
  1381.644,                               !- Specific Heat {J/kg-K}
  0.9,                                    !- Thermal Absorptance
  0.7,                                    !- Solar Absorptance
  0.8;                                    !- Visible Absorptance

OS:Material,
  {c148f55f-a5ad-47d4-ad8b-c030cbe2f945}, !- Handle
  Plywood - 5/8 in.,                      !- Name
  Smooth,                                 !- Roughness
  0.016002,                               !- Thickness {m}
  0.115440002246971,                      !- Conductivity {W/m-K}
  480.553901218804,                       !- Density {kg/m3}
  1884.06;                                !- Specific Heat {J/kg-K}

OS:Material,
  {ed5f4230-0992-44c8-bd39-2f747812be7b}, !- Handle
  Concrete - 140 lb/ft3 - 4 in.,          !- Name
  Smooth,                                 !- Roughness
  0.1016,                                 !- Thickness {m}
  1.95140333633374,                       !- Conductivity {W/m-K}
  2239.06081041215,                       !- Density {kg/m3}
  921.096;                                !- Specific Heat {J/kg-K}

OS:Material,
  {c883bef6-2dd2-49c5-ab69-2318575af7ae}, !- Handle
  Compliance Insulation R0.20,            !- Name
  Smooth,                                 !- Roughness
  0.000810768,                            !- Thickness {m}
  0.0230187710627394,                     !- Conductivity {W/m-K}
  16.0184633739601,                       !- Density {kg/m3}
  1130.436;                               !- Specific Heat {J/kg-K}

OS:Material,
  {04fd3450-3afe-4684-8f55-3aa2fad5c71d}, !- Handle
  Compliance Insulation R0.10,            !- Name
  Smooth,                                 !- Roughness
  0.000405384,                            !- Thickness {m}
  0.0230187710627394,                     !- Conductivity {W/m-K}
  16.0184633739601,                       !- Density {kg/m3}
  1130.436;                               !- Specific Heat {J/kg-K}

OS:Material,
  {2c527ade-8757-40b2-b133-04f4dce44eab}, !- Handle
  Concrete - Solid Grout - 115 lb/ft3 - 8 in., !- Name
  Smooth,                                 !- Roughness
  0.2032,                                 !- Thickness {m}
  1.31570449337553,                       !- Conductivity {W/m-K}
  1858.14175137938,                       !- Density {kg/m3}
  837.36;                                 !- Specific Heat {J/kg-K}

OS:Material,
  {374bac5a-7496-468d-984d-a752b6749eb2}, !- Handle
  Compliance Insulation R10.06,           !- Name
  Smooth,                                 !- Roughness
  0.040781732,                            !- Thickness {m}
  0.0230187710627394,                     !- Conductivity {W/m-K}
  16.0184633739601,                       !- Density {kg/m3}
  1130.436;                               !- Specific Heat {J/kg-K}

OS:Material,
  {98276cb5-bb26-4499-a75b-93594f04b8ab}, !- Handle
  Compliance Insulation R2.00,            !- Name
  Smooth,                                 !- Roughness
  0.00810768,                             !- Thickness {m}
  0.0230187710627394,                     !- Conductivity {W/m-K}
  16.0184633739601,                       !- Density {kg/m3}
  1130.436;                               !- Specific Heat {J/kg-K}

OS:Material,
  {1af0b63c-cd12-4fb1-a4ae-0ace9f8f4567}, !- Handle
  Air - Metal Wall Framing - 16 or 24 in. OC, !- Name
  Smooth,                                 !- Roughness
  0.1397,                                 !- Thickness {m}
  1.22016793979183,                       !- Conductivity {W/m-K}
  1.28147706991681,                       !- Density {kg/m3}
  1004.832;                               !- Specific Heat {J/kg-K}

OS:Material,
  {7ebef43d-3c73-44ae-aac3-98d5f841fbab}, !- Handle
  Metal Standing Seam - 1/16 in.,         !- Name
  MediumRough,                            !- Roughness
  0.0015875,                              !- Thickness {m}
  2.21534037295537,                       !- Conductivity {W/m-K}
  7820.53418843482,                       !- Density {kg/m3}
  502.416,                                !- Specific Heat {J/kg-K}
  0.85,                                   !- Thermal Absorptance
  0.37,                                   !- Solar Absorptance
  0.85;                                   !- Visible Absorptance

OS:Material,
  {e288d628-b243-4a9e-9a89-965a4a6e7ddc}, !- Handle
  Compliance Insulation R34.93,           !- Name
  Smooth,                                 !- Roughness
  0.141600682,                            !- Thickness {m}
  0.0230187710627394,                     !- Conductivity {W/m-K}
  16.0184633739601,                       !- Density {kg/m3}
  1130.436,                               !- Specific Heat {J/kg-K}
  0.9,                                    !- Thermal Absorptance
  0.7,                                    !- Solar Absorptance
  0.8;                                    !- Visible Absorptance

OS:Material,
  {6ba16039-a386-4917-b02a-178345bae468}, !- Handle
  Compliance Insulation R28.63,           !- Name
  Smooth,                                 !- Roughness
  0.11606149,                             !- Thickness {m}
  0.0230187710627394,                     !- Conductivity {W/m-K}
  16.0184633739601,                       !- Density {kg/m3}
  1130.436,                               !- Specific Heat {J/kg-K}
  0.9,                                    !- Thermal Absorptance
  0.7,                                    !- Solar Absorptance
  0.8;                                    !- Visible Absorptance

OS:Material,
  {6b28ac22-9f4e-4dd3-884a-f762c7394b10}, !- Handle
  Compliance Insulation R16.58,           !- Name
  MediumRough,                            !- Roughness
  0.067212718,                            !- Thickness {m}
  0.0230187710627394,                     !- Conductivity {W/m-K}
  16.0184633739601,                       !- Density {kg/m3}
  1130.436,                               !- Specific Heat {J/kg-K}
  0.9,                                    !- Thermal Absorptance
  0.7,                                    !- Solar Absorptance
  0.8;                                    !- Visible Absorptance

OS:Material,
  {de7b2eb6-6a3d-450f-a8a3-be59eef65254}, !- Handle
  Metal Deck - 1/16 in.,                  !- Name
  MediumRough,                            !- Roughness
  0.0015875,                              !- Thickness {m}
  45.3452482589303,                       !- Conductivity {W/m-K}
  7820.53418843482,                       !- Density {kg/m3}
  502.416,                                !- Specific Heat {J/kg-K}
  0.9,                                    !- Thermal Absorptance
  0.7,                                    !- Solar Absorptance
  0.8;                                    !- Visible Absorptance

OS:Construction,
  {ad93eddf-ce44-4103-9665-151840585d81}, !- Handle
  MetalFrameWallU069,                     !- Name
  ,                                       !- Surface Rendering Name
  {a7f9b143-e9cd-40a7-b4ca-6fc89e65aeee}, !- Layer 1
  {374bac5a-7496-468d-984d-a752b6749eb2}, !- Layer 2
  {98276cb5-bb26-4499-a75b-93594f04b8ab}, !- Layer 3
  {c883bef6-2dd2-49c5-ab69-2318575af7ae}, !- Layer 4
  {04fd3450-3afe-4684-8f55-3aa2fad5c71d}, !- Layer 5
  {1af0b63c-cd12-4fb1-a4ae-0ace9f8f4567}, !- Layer 6
  {58eecb2e-458c-49fe-9ba2-3f267d252a67}; !- Layer 7

OS:Construction,
  {f8cfeab8-ceda-437d-a738-372fc5ce34eb}, !- Handle
  MetalFrameWallInterior,                 !- Name
  ,                                       !- Surface Rendering Name
  {da38da3b-0cb1-43d2-ac03-41469edfc98f}, !- Layer 1
  {85834bcd-3c41-4a1b-9844-3fafa1568f3a}, !- Layer 2
  {da38da3b-0cb1-43d2-ac03-41469edfc98f}; !- Layer 3

OS:Material,
  {85834bcd-3c41-4a1b-9844-3fafa1568f3a}, !- Handle
  Air - Metal Wall Framing - 16 or 24 in. OC 1, !- Name
  Smooth,                                 !- Roughness
  0.1397,                                 !- Thickness {m}
  1.22016793979183,                       !- Conductivity {W/m-K}
  1.28147706991681,                       !- Density {kg/m3}
  1004.832;                               !- Specific Heat {J/kg-K}

OS:Construction,
  {16b30213-c1c6-45bd-b453-8eaf8b2f9649}, !- Handle
  FlatNonresWoodFramingAndOtherRoofUnconditioned, !- Name
  ,                                       !- Surface Rendering Name
  {7ebef43d-3c73-44ae-aac3-98d5f841fbab}; !- Layer 1

OS:Construction,
  {7f251d46-a62d-4279-9204-1886530e8971}, !- Handle
  FlatResWoodFramingAndOtherRoofU028Refl08, !- Name
  ,                                       !- Surface Rendering Name
  {1d2b44e8-4352-4f8e-baf4-727fa0556296}, !- Layer 1
  {e288d628-b243-4a9e-9a89-965a4a6e7ddc}; !- Layer 2

OS:Material,
  {1d2b44e8-4352-4f8e-baf4-727fa0556296}, !- Handle
  Metal Standing Seam - 1/16 in. 1,       !- Name
  MediumRough,                            !- Roughness
  0.0015875,                              !- Thickness {m}
  2.21534037295537,                       !- Conductivity {W/m-K}
  7820.53418843482,                       !- Density {kg/m3}
  502.416,                                !- Specific Heat {J/kg-K}
  0.85,                                   !- Thermal Absorptance
  0.92,                                   !- Solar Absorptance
  0.85;                                   !- Visible Absorptance

OS:Construction,
  {52409ef8-2ed1-4b46-a5dc-cc253d0177a4}, !- Handle
  FlatNonresWoodFramingAndOtherRoofU034,  !- Name
  ,                                       !- Surface Rendering Name
  {7c79611d-baf0-442e-842d-4bc7f0401e28}, !- Layer 1
  {6ba16039-a386-4917-b02a-178345bae468}; !- Layer 2

OS:Material,
  {7c79611d-baf0-442e-842d-4bc7f0401e28}, !- Handle
  Metal Standing Seam - 1/16 in. 2,       !- Name
  MediumRough,                            !- Roughness
  0.0015875,                              !- Thickness {m}
  2.21534037295537,                       !- Conductivity {W/m-K}
  7820.53418843482,                       !- Density {kg/m3}
  502.416,                                !- Specific Heat {J/kg-K}
  0.85,                                   !- Thermal Absorptance
  0.37,                                   !- Solar Absorptance
  0.85;                                   !- Visible Absorptance

OS:Construction,
  {c8129ed0-62c5-46c3-86e7-38e332501ca0}, !- Handle
  OtherFloorU048,                         !- Name
  ,                                       !- Surface Rendering Name
  {6b28ac22-9f4e-4dd3-884a-f762c7394b10}, !- Layer 1