
OS:Version,
  {608d95bb-0678-43cb-8ee6-fabce65cffca}, !- Handle
  2.7.2;                                  !- Version Identifier

OS:SimulationControl,
  {e2250681-dac2-4129-b131-ca4964ad9631}, !- Handle
  ,                                       !- Do Zone Sizing Calculation
  ,                                       !- Do System Sizing Calculation
  ,                                       !- Do Plant Sizing Calculation
  No,                                     !- Run Simulation for Sizing Periods
  Yes,                                    !- Run Simulation for Weather File Run Periods
  ,                                       !- Loads Convergence Tolerance Value
  ,                                       !- Temperature Convergence Tolerance Value {deltaC}
  FullExterior,                           !- Solar Distribution
  50;                                     !- Maximum Number of Warmup Days

OS:YearDescription,
  {0ef99a84-7b9f-464c-826d-e0575ef5f80e}, !- Handle
  2009,                                   !- Calendar Year
  ,                                       !- Day of Week for Start Day
  ;                                       !- Is Leap Year

OS:RunPeriod,
  {7463785f-dd84-451f-8cf0-a1f5b52c295b}, !- Handle
  ARCATA_725945_CZ2010,                   !- Name
  1,                                      !- Begin Month
  1,                                      !- Begin Day of Month
  12,                                     !- End Month
  31,                                     !- End Day of Month
  No,                                     !- Use Weather File Holidays and Special Days
  No,                                     !- Use Weather File Daylight Saving Period
  Yes,                                    !- Apply Weekend Holiday Rule
  ,                                       !- Use Weather File Rain Indicators
  ,                                       !- Use Weather File Snow Indicators
  ;                                       !- Number of Times Runperiod to be Repeated

OS:Site,
  {89fc4248-5ba3-4b4a-a9a1-60f652f3be95}, !- Handle
  ARCATA-AIRPORT Design_Conditions,       !- Name
  40.97,                                  !- Latitude {deg}
  -124.08,                                !- Longitude {deg}
  -8,                                     !- Time Zone {hr}
  60.96,                                  !- Elevation {m}
  ;                                       !- Terrain

OS:SizingPeriod:DesignDay,
  {354789bf-41a0-4f62-b7b5-ca40897a4f3a}, !- Handle
  ARCATA-AIRPORT Ann Htg 99.6% Condns DB, !- Name
  -0.1,                                   !- Maximum Dry-Bulb Temperature {C}
  0,                                      !- Daily Dry-Bulb Temperature Range {deltaC}
  -0.1,                                   !- Humidity Indicating Conditions at Maximum Dry-Bulb
  100594,                                 !- Barometric Pressure {Pa}
  1.6,                                    !- Wind Speed {m/s}
  90,                                     !- Wind Direction {deg}
  0,                                      !- Sky Clearness
  0,                                      !- Rain Indicator
  0,                                      !- Snow Indicator
  21,                                     !- Day of Month
  1,                                      !- Month
  WinterDesignDay,                        !- Day Type
  0,                                      !- Daylight Saving Time Indicator
  Wetbulb,                                !- Humidity Indicating Type
  ,                                       !- Humidity Indicating Day Schedule Name
  DefaultMultipliers,                     !- Dry-Bulb Temperature Range Modifier Type
  ,                                       !- Dry-Bulb Temperature Range Modifier Schedule Name
  ASHRAEClearSky;                         !- Solar Model Indicator

OS:SizingPeriod:DesignDay,
  {e97d117b-32fc-4127-b9db-2135d67420d1}, !- Handle
  ARCATA-AIRPORT Ann Clg 0.4% Condns DB=>MCWB, !- Name
  22,                                     !- Maximum Dry-Bulb Temperature {C}
  5.5,                                    !- Daily Dry-Bulb Temperature Range {deltaC}
  16.6,                                   !- Humidity Indicating Conditions at Maximum Dry-Bulb
  100594,                                 !- Barometric Pressure {Pa}
  5.2,                                    !- Wind Speed {m/s}
  0,                                      !- Wind Direction {deg}
  0,                                      !- Sky Clearness
  0,                                      !- Rain Indicator
  0,                                      !- Snow Indicator
  21,                                     !- Day of Month
  8,                                      !- Month
  SummerDesignDay,                        !- Day Type
  0,                                      !- Daylight Saving Time Indicator
  Wetbulb,                                !- Humidity Indicating Type
  ,                                       !- Humidity Indicating Day Schedule Name
  DefaultMultipliers,                     !- Dry-Bulb Temperature Range Modifier Type
  ,                                       !- Dry-Bulb Temperature Range Modifier Schedule Name
  ASHRAETau,                              !- Solar Model Indicator
  ,                                       !- Beam Solar Day Schedule Name
  ,                                       !- Diffuse Solar Day Schedule Name
  0.365,                                  !- ASHRAE Taub {dimensionless}
  2.512;                                  !- ASHRAE Taud {dimensionless}

OS:SizingPeriod:DesignDay,
  {76374881-af5e-4d0d-8149-cec82dcc9643}, !- Handle
  ARCATA-AIRPORT Ann Clg 0.4% Condns DP=>MCDB, !- Name
  17.8,                                   !- Maximum Dry-Bulb Temperature {C}
  5.5,                                    !- Daily Dry-Bulb Temperature Range {deltaC}
  16,                                     !- Humidity Indicating Conditions at Maximum Dry-Bulb
  100594,                                 !- Barometric Pressure {Pa}
  2.3,                                    !- Wind Speed {m/s}
  0,                                      !- Wind Direction {deg}
  0,                                      !- Sky Clearness
  0,                                      !- Rain Indicator
  0,                                      !- Snow Indicator
  21,                                     !- Day of Month
  8,                                      !- Month
  SummerDesignDay,                        !- Day Type
  0,                                      !- Daylight Saving Time Indicator
  Dewpoint,                               !- Humidity Indicating Type
  ,                                       !- Humidity Indicating Day Schedule Name
  DefaultMultipliers,                     !- Dry-Bulb Temperature Range Modifier Type
  ,                                       !- Dry-Bulb Temperature Range Modifier Schedule Name
  ASHRAETau,                              !- Solar Model Indicator
  ,                                       !- Beam Solar Day Schedule Name
  ,                                       !- Diffuse Solar Day Schedule Name
  0.365,                                  !- ASHRAE Taub {dimensionless}
  2.512;                                  !- ASHRAE Taud {dimensionless}

OS:SizingPeriod:DesignDay,
  {9a183a95-1c47-4dd6-a4ba-717ac0c1b9d1}, !- Handle
  ARCATA-AIRPORT JUN Clg 0.4% Condns DB=>MCWB, !- Name
  21.1,                                   !- Maximum Dry-Bulb Temperature {C}
  4.1,                                    !- Daily Dry-Bulb Temperature Range {deltaC}
  16.6,                                   !- Humidity Indicating Conditions at Maximum Dry-Bulb
  100594,                                 !- Barometric Pressure {Pa}
  4,                                      !- Wind Speed {m/s}
  315,                                    !- Wind Direction {deg}
  0,                                      !- Sky Clearness
  0,                                      !- Rain Indicator
  0,                                      !- Snow Indicator
  21,                                     !- Day of Month
  6,                                      !- Month
  SummerDesignDay,                        !- Day Type
  0,                                      !- Daylight Saving Time Indicator
  Wetbulb,                                !- Humidity Indicating Type
  ,                                       !- Humidity Indicating Day Schedule Name
  DefaultMultipliers,                     !- Dry-Bulb Temperature Range Modifier Type
  ,                                       !- Dry-Bulb Temperature Range Modifier Schedule Name
  ASHRAETau,                              !- Solar Model Indicator
  ,                                       !- Beam Solar Day Schedule Name
  ,                                       !- Diffuse Solar Day Schedule Name
  0.357,                                  !- ASHRAE Taub {dimensionless}
  2.539;                                  !- ASHRAE Taud {dimensionless}

OS:SizingPeriod:DesignDay,
  {d957d435-d29c-4724-b7c8-c37a5da9dfa3}, !- Handle
  ARCATA-AIRPORT JUL Clg 0.4% Condns DB=>MCWB, !- Name
  20.9,                                   !- Maximum Dry-Bulb Temperature {C}
  4.8,                                    !- Daily Dry-Bulb Temperature Range {deltaC}
  16.5,                                   !- Humidity Indicating Conditions at Maximum Dry-Bulb
  100594,                                 !- Barometric Pressure {Pa}
  4.2,                                    !- Wind Speed {m/s}
  270,                                    !- Wind Direction {deg}
  0,                                      !- Sky Clearness
  0,                                      !- Rain Indicator
  0,                                      !- Snow Indicator
  21,                                     !- Day of Month
  7,                                      !- Month
  SummerDesignDay,                        !- Day Type
  0,                                      !- Daylight Saving Time Indicator
  Wetbulb,                                !- Humidity Indicating Type
  ,                                       !- Humidity Indicating Day Schedule Name
  DefaultMultipliers,                     !- Dry-Bulb Temperature Range Modifier Type
  ,                                       !- Dry-Bulb Temperature Range Modifier Schedule Name
  ASHRAETau,                              !- Solar Model Indicator
  ,                                       !- Beam Solar Day Schedule Name
  ,                                       !- Diffuse Solar Day Schedule Name
  0.366,                                  !- ASHRAE Taub {dimensionless}
  2.512;                                  !- ASHRAE Taud {dimensionless}

OS:SizingPeriod:DesignDay,
  {f2f1ade1-c80c-4f7f-bbcb-14589a76c9ab}, !- Handle
  ARCATA-AIRPORT AUG Clg 0.4% Condns DB=>MCWB, !- Name
  22,                                     !- Maximum Dry-Bulb Temperature {C}
  5.5,                                    !- Daily Dry-Bulb Temperature Range {deltaC}
  16.5,                                   !- Humidity Indicating Conditions at Maximum Dry-Bulb
  100594,                                 !- Barometric Pressure {Pa}
  7,                                      !- Wind Speed {m/s}
  337,                                    !- Wind Direction {deg}
  0,                                      !- Sky Clearness
  0,                                      !- Rain Indicator
  0,                                      !- Snow Indicator
  21,                                     !- Day of Month
  8,                                      !- Month
  SummerDesignDay,                        !- Day Type
  0,                                      !- Daylight Saving Time Indicator
  Wetbulb,                                !- Humidity Indicating Type
  ,                                       !- Humidity Indicating Day Schedule Name
  DefaultMultipliers,                     !- Dry-Bulb Temperature Range Modifier Type
  ,                                       !- Dry-Bulb Temperature Range Modifier Schedule Name
  ASHRAETau,                              !- Solar Model Indicator
  ,                                       !- Beam Solar Day Schedule Name
  ,                                       !- Diffuse Solar Day Schedule Name
  0.365,                                  !- ASHRAE Taub {dimensionless}
  2.512;                                  !- ASHRAE Taud {dimensionless}

OS:SizingPeriod:DesignDay,
  {ed593475-3bf2-4800-a5f4-42000e5d3e18}, !- Handle
  ARCATA-AIRPORT SEP Clg 0.4% Condns DB=>MCWB, !- Name
  25.2,                                   !- Maximum Dry-Bulb Temperature {C}
  4.7,                                    !- Daily Dry-Bulb Temperature Range {deltaC}
  16.8,                                   !- Humidity Indicating Conditions at Maximum Dry-Bulb
  100594,                                 !- Barometric Pressure {Pa}
  5,                                      !- Wind Speed {m/s}
  0,                                      !- Wind Direction {deg}
  0,                                      !- Sky Clearness
  0,                                      !- Rain Indicator
  0,                                      !- Snow Indicator
  21,                                     !- Day of Month
  9,                                      !- Month
  SummerDesignDay,                        !- Day Type
  0,                                      !- Daylight Saving Time Indicator
  Wetbulb,                                !- Humidity Indicating Type
  ,                                       !- Humidity Indicating Day Schedule Name
  DefaultMultipliers,                     !- Dry-Bulb Temperature Range Modifier Type
  ,                                       !- Dry-Bulb Temperature Range Modifier Schedule Name
  ASHRAETau,                              !- Solar Model Indicator
  ,                                       !- Beam Solar Day Schedule Name
  ,                                       !- Diffuse Solar Day Schedule Name
  0.35,                                   !- ASHRAE Taub {dimensionless}
  2.596;                                  !- ASHRAE Taud {dimensionless}

OS:SizingPeriod:DesignDay,
  {194c186f-e603-4d42-ae47-773079af96ba}, !- Handle
  ARCATA-AIRPORT OCT Clg 0.4% Condns DB=>MCWB, !- Name
  24.4,                                   !- Maximum Dry-Bulb Temperature {C}
  5.8,                                    !- Daily Dry-Bulb Temperature Range {deltaC}
  15.1,                                   !- Humidity Indicating Conditions at Maximum Dry-Bulb
  100594,                                 !- Barometric Pressure {Pa}
  1.6,                                    !- Wind Speed {m/s}
  315,                                    !- Wind Direction {deg}
  0,                                      !- Sky Clearness
  0,                                      !- Rain Indicator
  0,                                      !- Snow Indicator
  21,                                     !- Day of Month
  10,                                     !- Month
  SummerDesignDay,                        !- Day Type
  0,                                      !- Daylight Saving Time Indicator
  Wetbulb,                                !- Humidity Indicating Type
  ,                                       !- Humidity Indicating Day Schedule Name
  DefaultMultipliers,                     !- Dry-Bulb Temperature Range Modifier Type
  ,                                       !- Dry-Bulb Temperature Range Modifier Schedule Name
  ASHRAETau,                              !- Solar Model Indicator
  ,                                       !- Beam Solar Day Schedule Name
  ,                                       !- Diffuse Solar Day Schedule Name
  0.34,                                   !- ASHRAE Taub {dimensionless}
  2.583;                                  !- ASHRAE Taud {dimensionless}

OS:SizingPeriod:DesignDay,
  {ee7ea019-2449-4c3f-b7eb-e015e61a6dd3}, !- Handle
  ARCATA-AIRPORT NOV Clg 0.4% Condns DB=>MCWB, !- Name
  20.8,                                   !- Maximum Dry-Bulb Temperature {C}
  4.6,                                    !- Daily Dry-Bulb Temperature Range {deltaC}
  13.1,                                   !- Humidity Indicating Conditions at Maximum Dry-Bulb
  100594,                                 !- Barometric Pressure {Pa}
  1.8,                                    !- Wind Speed {m/s}
  67,                                     !- Wind Direction {deg}
  0,                                      !- Sky Clearness
  0,                                      !- Rain Indicator
  0,                                      !- Snow Indicator
  21,                                     !- Day of Month
  11,                                     !- Month
  SummerDesignDay,                        !- Day Type
  0,                                      !- Daylight Saving Time Indicator
  Wetbulb,                                !- Humidity Indicating Type
  ,                                       !- Humidity Indicating Day Schedule Name
  DefaultMultipliers,                     !- Dry-Bulb Temperature Range Modifier Type
  ,                                       !- Dry-Bulb Temperature Range Modifier Schedule Name
  ASHRAETau,                              !- Solar Model Indicator
  ,                                       !- Beam Solar Day Schedule Name
  ,                                       !- Diffuse Solar Day Schedule Name
  0.329,                                  !- ASHRAE Taub {dimensionless}
  2.592;                                  !- ASHRAE Taud {dimensionless}

OS:WeatherFile,
  {82dacda9-4816-4afe-a5d5-b76994e93e03}, !- Handle
  ARCATA-AP,                              !- City
  -,                                      !- State Province Region
  USA,                                    !- Country
  Custom-725945,                          !- Data Source
  725945,                                 !- WMO Number
  40.98,                                  !- Latitude {deg}
  -124.1,                                 !- Longitude {deg}
  -8,                                     !- Time Zone {hr}
  62,                                     !- Elevation {m}
  file:///C:/Users/mnakajima/Documents/CBECC-Com 2019 Data/EPW/ARCATA_725945_CZ2010.epw, !- Url
  A7DF346E;                               !- Checksum

OS:Sizing:Parameters,
  {54d221ba-6bd4-4843-b8d2-14ae1850db0f}, !- Handle
  1,                                      !- Heating Sizing Factor
  1;                                      !- Cooling Sizing Factor

OS:Material,
  {1c4ef423-6efc-45a1-9476-ee677826d963}, !- Handle
  Gypsum Board - 1/2 in.,                 !- Name
  Smooth,                                 !- Roughness
  0.0127,                                 !- Thickness {m}
  0.158656446866265,                      !- Conductivity {W/m-K}
  640.738534958406,                       !- Density {kg/m3}
  1130.436,                               !- Specific Heat {J/kg-K}
  0.9,                                    !- Thermal Absorptance
  0.7,                                    !- Solar Absorptance
  0.8;                                    !- Visible Absorptance

OS:Material,
  {a19ba199-a656-47fb-b404-2c77aef3e5b2}, !- Handle
  Gypsum Board - 5/8 in.,                 !- Name
  MediumRough,                            !- Roughness
  0.016002,                               !- Thickness {m}
  0.158656446866265,                      !- Conductivity {W/m-K}
  640.738534958406,                       !- Density {kg/m3}
  1130.436,                               !- Specific Heat {J/kg-K}
  0.9,                                    !- Thermal Absorptance
  0.7,                                    !- Solar Absorptance
  0.8;                                    !- Visible Absorptance

OS:Material,
  {2428d53c-627a-4b9f-b917-6f042c35f21c}, !- Handle
  Stucco - 7/8 in.,                       !- Name
  MediumRough,                            !- Roughness
  0.022352,                               !- Thickness {m}
  0.700947539880412,                      !- Conductivity {W/m-K}
  1855.09824333832,                       !- Density {kg/m3}
  837.36,                                 !- Specific Heat {J/kg-K}
  0.9,                                    !- Thermal Absorptance
  0.7,                                    !- Solar Absorptance
  0.8;                                    !- Visible Absorptance

OS:Material,
  {fd7aac5b-8316-41fe-8a40-f695a0893d47}, !- Handle
  Carpet - 3/4 in.,                       !- Name
  Smooth,                                 !- Roughness
  0.01905,                                !- Thickness {m}
  0.0455183217255675,                     !- Conductivity {W/m-K}
  288.332340731283,                       !- Density {kg/m3}
  1381.644,                               !- Specific Heat {J/kg-K}
  0.9,                                    !- Thermal Absorptance
  0.7,                                    !- Solar Absorptance
  0.8;                                    !- Visible Absorptance

OS:Material,
  {dfcd7b94-abac-488f-821a-3315493f9df5}, !- Handle
  Plywood - 5/8 in.,                      !- Name
  Smooth,                                 !- Roughness
  0.016002,                               !- Thickness {m}
  0.115440002246971,                      !- Conductivity {W/m-K}
  480.553901218804,                       !- Density {kg/m3}
  1884.06;                                !- Specific Heat {J/kg-K}

OS:Material,
  {729e8ab7-2d3c-4407-86cc-c60619ec1856}, !- Handle
  Concrete - 140 lb/ft3 - 4 in.,          !- Name
  Smooth,                                 !- Roughness
  0.1016,                                 !- Thickness {m}
  1.95140333633374,                       !- Conductivity {W/m-K}
  2239.06081041215,                       !- Density {kg/m3}
  921.096;                                !- Specific Heat {J/kg-K}

OS:Material,
  {e72fc2e8-a6d5-4fa1-be19-77b6d6887e1e}, !- Handle
  Compliance Insulation R0.20,            !- Name
  Smooth,                                 !- Roughness
  0.000810768,                            !- Thickness {m}
  0.0230187710627394,                     !- Conductivity {W/m-K}
  16.0184633739601,                       !- Density {kg/m3}
  1130.436;                               !- Specific Heat {J/kg-K}

OS:Material,
  {3ac4ad11-b328-417b-8818-8b3a4d7583bd}, !- Handle
  Compliance Insulation R0.10,            !- Name
  Smooth,                                 !- Roughness
  0.000405384,                            !- Thickness {m}
  0.0230187710627394,                     !- Conductivity {W/m-K}
  16.0184633739601,                       !- Density {kg/m3}
  1130.436;                               !- Specific Heat {J/kg-K}

OS:Material,
  {b24965ab-9ef7-42dd-a965-7d078cfaa01a}, !- Handle
  Concrete - Solid Grout - 115 lb/ft3 - 8 in., !- Name
  Smooth,                                 !- Roughness
  0.2032,                                 !- Thickness {m}
  1.31570449337553,                       !- Conductivity {W/m-K}
  1858.14175137938,                       !- Density {kg/m3}
  837.36;                                 !- Specific Heat {J/kg-K}

OS:Material,
  {5a327b8e-6d90-4349-a3f7-d33cf1cc68e9}, !- Handle
  Compliance Insulation R10.06,           !- Name
  Smooth,                                 !- Roughness
  0.040781732,                            !- Thickness {m}
  0.0230187710627394,                     !- Conductivity {W/m-K}
  16.0184633739601,                       !- Density {kg/m3}
  1130.436;                               !- Specific Heat {J/kg-K}

OS:Material,
  {00da5a06-201b-4acd-8ed8-91cd5eab8ee0}, !- Handle
  Compliance Insulation R2.00,            !- Name
  Smooth,                                 !- Roughness
  0.00810768,                             !- Thickness {m}
  0.0230187710627394,                     !- Conductivity {W/m-K}
  16.0184633739601,                       !- Density {kg/m3}
  1130.436;                               !- Specific Heat {J/kg-K}

OS:Material,
  {e0c091bb-39c1-46d1-944b-a2fec5c0725e}, !- Handle
  Air - Metal Wall Framing - 16 or 24 in. OC, !- Name
  Smooth,                                 !- Roughness
  0.1397,                                 !- Thickness {m}
  1.22016793979183,                       !- Conductivity {W/m-K}
  1.28147706991681,                       !- Density {kg/m3}
  1004.832;                               !- Specific Heat {J/kg-K}

OS:Material,
  {dc3b0b5f-b1b5-430f-9e65-d4ecd5b5e6fd}, !- Handle
  Metal Standing Seam - 1/16 in.,         !- Name
  MediumRough,                            !- Roughness
  0.0015875,                              !- Thickness {m}
  2.21534037295537,                       !- Conductivity {W/m-K}
  7820.53418843482,                       !- Density {kg/m3}
  502.416,                                !- Specific Heat {J/kg-K}
  0.85,                                   !- Thermal Absorptance
  0.37,                                   !- Solar Absorptance
  0.85;                                   !- Visible Absorptance

OS:Material,
  {c63ff1b0-8d0b-48bc-be18-011caae68775}, !- Handle
  Compliance Insulation R34.93,           !- Name
  Smooth,                                 !- Roughness
  0.141600682,                            !- Thickness {m}
  0.0230187710627394,                     !- Conductivity {W/m-K}
  16.0184633739601,                       !- Density {kg/m3}
  1130.436,                               !- Specific Heat {J/kg-K}
  0.9,                                    !- Thermal Absorptance
  0.7,                                    !- Solar Absorptance
  0.8;                                    !- Visible Absorptance

OS:Material,
  {c27ae272-b0ca-403f-9462-69dfc2753d5f}, !- Handle
  Compliance Insulation R28.63,           !- Name
  Smooth,                                 !- Roughness
  0.11606149,                             !- Thickness {m}
  0.0230187710627394,                     !- Conductivity {W/m-K}
  16.0184633739601,                       !- Density {kg/m3}
  1130.436,                               !- Specific Heat {J/kg-K}
  0.9,                                    !- Thermal Absorptance
  0.7,                                    !- Solar Absorptance
  0.8;                                    !- Visible Absorptance

OS:Material,
  {87ce7337-8b03-424e-a041-52e982930777}, !- Handle
  Compliance Insulation R16.58,           !- Name
  MediumRough,                            !- Roughness
  0.067212718,                            !- Thickness {m}
  0.0230187710627394,                     !- Conductivity {W/m-K}
  16.0184633739601,                       !- Density {kg/m3}
  1130.436,                               !- Specific Heat {J/kg-K}
  0.9,                                    !- Thermal Absorptance
  0.7,                                    !- Solar Absorptance
  0.8;                                    !- Visible Absorptance

OS:Material,
  {f4cccae1-dce1-4feb-a736-291762ef9a06}, !- Handle
  Metal Deck - 1/16 in.,                  !- Name
  MediumRough,                            !- Roughness
  0.0015875,                              !- Thickness {m}
  45.3452482589303,                       !- Conductivity {W/m-K}
  7820.53418843482,                       !- Density {kg/m3}
  502.416,                                !- Specific Heat {J/kg-K}
  0.9,                                    !- Thermal Absorptance
  0.7,                                    !- Solar Absorptance
  0.8;                                    !- Visible Absorptance

OS:Construction,
  {e39bbc5e-1f84-4014-8852-0bc395cabee5}, !- Handle
  MetalFrameWallU069,                     !- Name
  ,                                       !- Surface Rendering Name
  {2428d53c-627a-4b9f-b917-6f042c35f21c}, !- Layer 1
  {5a327b8e-6d90-4349-a3f7-d33cf1cc68e9}, !- Layer 2
  {00da5a06-201b-4acd-8ed8-91cd5eab8ee0}, !- Layer 3
  {e72fc2e8-a6d5-4fa1-be19-77b6d6887e1e}, !- Layer 4
  {3ac4ad11-b328-417b-8818-8b3a4d7583bd}, !- Layer 5
  {e0c091bb-39c1-46d1-944b-a2fec5c0725e}, !- Layer 6
  {1c4ef423-6efc-45a1-9476-ee677826d963}; !- Layer 7

OS:Construction,
  {4bf87cab-bfbd-4557-a730-2fe0758bc916}, !- Handle
  MetalFrameWallInterior,                 !- Name
  ,                                       !- Surface Rendering Name
  {a19ba199-a656-47fb-b404-2c77aef3e5b2}, !- Layer 1
  {58a41591-e180-468e-ab47-e8632c82339d}, !- Layer 2
  {a19ba199-a656-47fb-b404-2c77aef3e5b2}; !- Layer 3

OS:Material,
  {58a41591-e180-468e-ab47-e8632c82339d}, !- Handle
  Air - Metal Wall Framing - 16 or 24 in. OC 1, !- Name
  Smooth,                                 !- Roughness
  0.1397,                                 !- Thickness {m}
  1.22016793979183,                       !- Conductivity {W/m-K}
  1.28147706991681,                       !- Density {kg/m3}
  1004.832;                               !- Specific Heat {J/kg-K}

OS:Construction,
  {72103d64-6cda-4a67-bcd8-a6fa5f5a81c2}, !- Handle
  FlatNonresWoodFramingAndOtherRoofUnconditioned, !- Name
  ,                                       !- Surface Rendering Name
  {dc3b0b5f-b1b5-430f-9e65-d4ecd5b5e6fd}; !- Layer 1

OS:Construction,
  {0c02c623-865d-4fe2-8485-569c2325be4a}, !- Handle
  FlatResWoodFramingAndOtherRoofU028Refl08, !- Name
  ,                                       !- Surface Rendering Name
  {530bfbaf-db54-4bef-8395-569b7235b32a}, !- Layer 1
  {c63ff1b0-8d0b-48bc-be18-011caae68775}; !- Layer 2

OS:Material,
  {530bfbaf-db54-4bef-8395-569b7235b32a}, !- Handle
  Metal Standing Seam - 1/16 in. 1,       !- Name
  MediumRough,                            !- Roughness
  0.0015875,                              !- Thickness {m}
  2.21534037295537,                       !- Conductivity {W/m-K}
  7820.53418843482,                       !- Density {kg/m3}
  502.416,                                !- Specific Heat {J/kg-K}
  0.85,                                   !- Thermal Absorptance
  0.92,                                   !- Solar Absorptance
  0.85;                                   !- Visible Absorptance

OS:Construction,
  {f6467333-b1bf-4436-a14b-4c528407072f}, !- Handle