
OS:Version,
  {b30c3ebb-9e26-46e3-8eb4-b3b6de17fb16}, !- Handle
  2.7.2;                                  !- Version Identifier

OS:SimulationControl,
  {fa9065d1-3c83-4768-a6c8-3f0b7e994992}, !- Handle
  ,                                       !- Do Zone Sizing Calculation
  ,                                       !- Do System Sizing Calculation
  ,                                       !- Do Plant Sizing Calculation
  No,                                     !- Run Simulation for Sizing Periods
  Yes,                                    !- Run Simulation for Weather File Run Periods
  ,                                       !- Loads Convergence Tolerance Value
  ,                                       !- Temperature Convergence Tolerance Value {deltaC}
  FullExterior,                           !- Solar Distribution
  50;                                     !- Maximum Number of Warmup Days

OS:YearDescription,
  {dc6f037f-cb90-4e0d-b008-74efe204ba85}, !- Handle
  2009,                                   !- Calendar Year
  ,                                       !- Day of Week for Start Day
  ;                                       !- Is Leap Year

OS:RunPeriod,
  {18b1dc24-4c49-4dd2-83f6-1353dd6cab10}, !- Handle
  PALM-SPRINGS-INTL_722868_CZ2010,        !- Name
  1,                                      !- Begin Month
  1,                                      !- Begin Day of Month
  12,                                     !- End Month
  31,                                     !- End Day of Month
  No,                                     !- Use Weather File Holidays and Special Days
  No,                                     !- Use Weather File Daylight Saving Period
  Yes,                                    !- Apply Weekend Holiday Rule
  ,                                       !- Use Weather File Rain Indicators
  ,                                       !- Use Weather File Snow Indicators
  ;                                       !- Number of Times Runperiod to be Repeated

OS:Site,
  {2b84da23-ce7f-4940-8e34-63713ff78267}, !- Handle
  PALM-SPRINGS-INTL Design_Conditions,    !- Name
  33.82,                                  !- Latitude {deg}
  -116.5,                                 !- Longitude {deg}
  -8,                                     !- Time Zone {hr}
  145.0848,                               !- Elevation {m}
  ;                                       !- Terrain

OS:SizingPeriod:DesignDay,
  {c6bb3f9d-4cea-4998-87bf-0d084791a683}, !- Handle
  PALM-SPRINGS-INTL Ann Htg 99.6% Condns DB, !- Name
  5.9,                                    !- Maximum Dry-Bulb Temperature {C}
  0,                                      !- Daily Dry-Bulb Temperature Range {deltaC}
  5.9,                                    !- Humidity Indicating Conditions at Maximum Dry-Bulb
  99595,                                  !- Barometric Pressure {Pa}
  2.2,                                    !- Wind Speed {m/s}
  337,                                    !- Wind Direction {deg}
  0,                                      !- Sky Clearness
  0,                                      !- Rain Indicator
  0,                                      !- Snow Indicator
  21,                                     !- Day of Month
  1,                                      !- Month
  WinterDesignDay,                        !- Day Type
  0,                                      !- Daylight Saving Time Indicator
  Wetbulb,                                !- Humidity Indicating Type
  ,                                       !- Humidity Indicating Day Schedule Name
  DefaultMultipliers,                     !- Dry-Bulb Temperature Range Modifier Type
  ,                                       !- Dry-Bulb Temperature Range Modifier Schedule Name
  ASHRAEClearSky;                         !- Solar Model Indicator

OS:SizingPeriod:DesignDay,
  {0f66d91a-c0e1-4fa0-b8ec-8ad9411153af}, !- Handle
  PALM-SPRINGS-INTL Ann Clg 0.4% Condns DB=>MCWB, !- Name
  44,                                     !- Maximum Dry-Bulb Temperature {C}
  13.7,                                   !- Daily Dry-Bulb Temperature Range {deltaC}
  21.9,                                   !- Humidity Indicating Conditions at Maximum Dry-Bulb
  99595,                                  !- Barometric Pressure {Pa}
  4.3,                                    !- Wind Speed {m/s}
  315,                                    !- Wind Direction {deg}
  0,                                      !- Sky Clearness
  0,                                      !- Rain Indicator
  0,                                      !- Snow Indicator
  21,                                     !- Day of Month
  7,                                      !- Month
  SummerDesignDay,                        !- Day Type
  0,                                      !- Daylight Saving Time Indicator
  Wetbulb,                                !- Humidity Indicating Type
  ,                                       !- Humidity Indicating Day Schedule Name
  DefaultMultipliers,                     !- Dry-Bulb Temperature Range Modifier Type
  ,                                       !- Dry-Bulb Temperature Range Modifier Schedule Name
  ASHRAETau,                              !- Solar Model Indicator
  ,                                       !- Beam Solar Day Schedule Name
  ,                                       !- Diffuse Solar Day Schedule Name
  0.485,                                  !- ASHRAE Taub {dimensionless}
  1.942;                                  !- ASHRAE Taud {dimensionless}

OS:SizingPeriod:DesignDay,
  {3af4f3d1-3aef-4c87-8137-406a42d80c34}, !- Handle
  PALM-SPRINGS-INTL Ann Clg 0.4% Condns DP=>MCDB, !- Name
  32.9,                                   !- Maximum Dry-Bulb Temperature {C}
  13.7,                                   !- Daily Dry-Bulb Temperature Range {deltaC}
  28,                                     !- Humidity Indicating Conditions at Maximum Dry-Bulb
  99595,                                  !- Barometric Pressure {Pa}
  0,                                      !- Wind Speed {m/s}
  315,                                    !- Wind Direction {deg}
  0,                                      !- Sky Clearness
  0,                                      !- Rain Indicator
  0,                                      !- Snow Indicator
  21,                                     !- Day of Month
  7,                                      !- Month
  SummerDesignDay,                        !- Day Type
  0,                                      !- Daylight Saving Time Indicator
  Dewpoint,                               !- Humidity Indicating Type
  ,                                       !- Humidity Indicating Day Schedule Name
  DefaultMultipliers,                     !- Dry-Bulb Temperature Range Modifier Type
  ,                                       !- Dry-Bulb Temperature Range Modifier Schedule Name
  ASHRAETau,                              !- Solar Model Indicator
  ,                                       !- Beam Solar Day Schedule Name
  ,                                       !- Diffuse Solar Day Schedule Name
  0.485,                                  !- ASHRAE Taub {dimensionless}
  1.942;                                  !- ASHRAE Taud {dimensionless}

OS:SizingPeriod:DesignDay,
  {20d98272-02ca-451b-ae8c-657d3c84985c}, !- Handle
  PALM-SPRINGS-INTL JUN Clg 0.4% Condns DB=>MCWB, !- Name
  45,                                     !- Maximum Dry-Bulb Temperature {C}
  16.4,                                   !- Daily Dry-Bulb Temperature Range {deltaC}
  19.8,                                   !- Humidity Indicating Conditions at Maximum Dry-Bulb
  99595,                                  !- Barometric Pressure {Pa}
  7.4,                                    !- Wind Speed {m/s}
  315,                                    !- Wind Direction {deg}
  0,                                      !- Sky Clearness
  0,                                      !- Rain Indicator
  0,                                      !- Snow Indicator
  21,                                     !- Day of Month
  6,                                      !- Month
  SummerDesignDay,                        !- Day Type
  0,                                      !- Daylight Saving Time Indicator
  Wetbulb,                                !- Humidity Indicating Type
  ,                                       !- Humidity Indicating Day Schedule Name
  DefaultMultipliers,                     !- Dry-Bulb Temperature Range Modifier Type
  ,                                       !- Dry-Bulb Temperature Range Modifier Schedule Name
  ASHRAETau,                              !- Solar Model Indicator
  ,                                       !- Beam Solar Day Schedule Name
  ,                                       !- Diffuse Solar Day Schedule Name
  0.411,                                  !- ASHRAE Taub {dimensionless}
  2.179;                                  !- ASHRAE Taud {dimensionless}

OS:SizingPeriod:DesignDay,
  {215d1140-bc00-4de9-8776-cead46dcb999}, !- Handle
  PALM-SPRINGS-INTL JUL Clg 0.4% Condns DB=>MCWB, !- Name
  47,                                     !- Maximum Dry-Bulb Temperature {C}
  13.7,                                   !- Daily Dry-Bulb Temperature Range {deltaC}
  24.1,                                   !- Humidity Indicating Conditions at Maximum Dry-Bulb
  99595,                                  !- Barometric Pressure {Pa}
  4.5,                                    !- Wind Speed {m/s}
  315,                                    !- Wind Direction {deg}
  0,                                      !- Sky Clearness
  0,                                      !- Rain Indicator
  0,                                      !- Snow Indicator
  21,                                     !- Day of Month
  7,                                      !- Month
  SummerDesignDay,                        !- Day Type
  0,                                      !- Daylight Saving Time Indicator
  Wetbulb,                                !- Humidity Indicating Type
  ,                                       !- Humidity Indicating Day Schedule Name
  DefaultMultipliers,                     !- Dry-Bulb Temperature Range Modifier Type
  ,                                       !- Dry-Bulb Temperature Range Modifier Schedule Name
  ASHRAETau,                              !- Solar Model Indicator
  ,                                       !- Beam Solar Day Schedule Name
  ,                                       !- Diffuse Solar Day Schedule Name
  0.485,                                  !- ASHRAE Taub {dimensionless}
  1.942;                                  !- ASHRAE Taud {dimensionless}

OS:SizingPeriod:DesignDay,
  {ac7b6060-2180-4fe2-b28c-2ef08b82120e}, !- Handle
  PALM-SPRINGS-INTL AUG Clg 0.4% Condns DB=>MCWB, !- Name
  46,                                     !- Maximum Dry-Bulb Temperature {C}
  13,                                     !- Daily Dry-Bulb Temperature Range {deltaC}
  24,                                     !- Humidity Indicating Conditions at Maximum Dry-Bulb
  99595,                                  !- Barometric Pressure {Pa}
  4.5,                                    !- Wind Speed {m/s}
  315,                                    !- Wind Direction {deg}
  0,                                      !- Sky Clearness
  0,                                      !- Rain Indicator
  0,                                      !- Snow Indicator
  21,                                     !- Day of Month
  8,                                      !- Month
  SummerDesignDay,                        !- Day Type
  0,                                      !- Daylight Saving Time Indicator
  Wetbulb,                                !- Humidity Indicating Type
  ,                                       !- Humidity Indicating Day Schedule Name
  DefaultMultipliers,                     !- Dry-Bulb Temperature Range Modifier Type
  ,                                       !- Dry-Bulb Temperature Range Modifier Schedule Name
  ASHRAETau,                              !- Solar Model Indicator
  ,                                       !- Beam Solar Day Schedule Name
  ,                                       !- Diffuse Solar Day Schedule Name
  0.463,                                  !- ASHRAE Taub {dimensionless}
  2.034;                                  !- ASHRAE Taud {dimensionless}

OS:SizingPeriod:DesignDay,
  {94a79c54-40f1-4635-9531-ea6e1e4828c8}, !- Handle
  PALM-SPRINGS-INTL SEP Clg 0.4% Condns DB=>MCWB, !- Name
  43.1,                                   !- Maximum Dry-Bulb Temperature {C}
  14.2,                                   !- Daily Dry-Bulb Temperature Range {deltaC}
  20.9,                                   !- Humidity Indicating Conditions at Maximum Dry-Bulb
  99595,                                  !- Barometric Pressure {Pa}
  3.1,                                    !- Wind Speed {m/s}
  135,                                    !- Wind Direction {deg}
  0,                                      !- Sky Clearness
  0,                                      !- Rain Indicator
  0,                                      !- Snow Indicator
  21,                                     !- Day of Month
  9,                                      !- Month
  SummerDesignDay,                        !- Day Type
  0,                                      !- Daylight Saving Time Indicator
  Wetbulb,                                !- Humidity Indicating Type
  ,                                       !- Humidity Indicating Day Schedule Name
  DefaultMultipliers,                     !- Dry-Bulb Temperature Range Modifier Type
  ,                                       !- Dry-Bulb Temperature Range Modifier Schedule Name
  ASHRAETau,                              !- Solar Model Indicator
  ,                                       !- Beam Solar Day Schedule Name
  ,                                       !- Diffuse Solar Day Schedule Name
  0.406,                                  !- ASHRAE Taub {dimensionless}
  2.238;                                  !- ASHRAE Taud {dimensionless}

OS:SizingPeriod:DesignDay,
  {0063c592-0e4e-4a3f-a033-f7450ac707d1}, !- Handle
  PALM-SPRINGS-INTL OCT Clg 0.4% Condns DB=>MCWB, !- Name
  38.9,                                   !- Maximum Dry-Bulb Temperature {C}
  11.1,                                   !- Daily Dry-Bulb Temperature Range {deltaC}
  19.5,                                   !- Humidity Indicating Conditions at Maximum Dry-Bulb
  99595,                                  !- Barometric Pressure {Pa}
  2.9,                                    !- Wind Speed {m/s}
  112,                                    !- Wind Direction {deg}
  0,                                      !- Sky Clearness
  0,                                      !- Rain Indicator
  0,                                      !- Snow Indicator
  21,                                     !- Day of Month
  10,                                     !- Month
  SummerDesignDay,                        !- Day Type
  0,                                      !- Daylight Saving Time Indicator
  Wetbulb,                                !- Humidity Indicating Type
  ,                                       !- Humidity Indicating Day Schedule Name
  DefaultMultipliers,                     !- Dry-Bulb Temperature Range Modifier Type
  ,                                       !- Dry-Bulb Temperature Range Modifier Schedule Name
  ASHRAETau,                              !- Solar Model Indicator
  ,                                       !- Beam Solar Day Schedule Name
  ,                                       !- Diffuse Solar Day Schedule Name
  0.38,                                   !- ASHRAE Taub {dimensionless}
  2.253;                                  !- ASHRAE Taud {dimensionless}

OS:SizingPeriod:DesignDay,
  {902cf034-4429-48b5-9f3f-f60a6798e87b}, !- Handle
  PALM-SPRINGS-INTL NOV Clg 0.4% Condns DB=>MCWB, !- Name
  32.9,                                   !- Maximum Dry-Bulb Temperature {C}
  0,                                      !- Daily Dry-Bulb Temperature Range {deltaC}
  16.1,                                   !- Humidity Indicating Conditions at Maximum Dry-Bulb
  99595,                                  !- Barometric Pressure {Pa}
  3.3,                                    !- Wind Speed {m/s}
  112,                                    !- Wind Direction {deg}
  0,                                      !- Sky Clearness
  0,                                      !- Rain Indicator
  0,                                      !- Snow Indicator
  21,                                     !- Day of Month
  11,                                     !- Month
  SummerDesignDay,                        !- Day Type
  0,                                      !- Daylight Saving Time Indicator
  Wetbulb,                                !- Humidity Indicating Type
  ,                                       !- Humidity Indicating Day Schedule Name
  DefaultMultipliers,                     !- Dry-Bulb Temperature Range Modifier Type
  ,                                       !- Dry-Bulb Temperature Range Modifier Schedule Name
  ASHRAETau,                              !- Solar Model Indicator
  ,                                       !- Beam Solar Day Schedule Name
  ,                                       !- Diffuse Solar Day Schedule Name
  0.34,                                   !- ASHRAE Taub {dimensionless}
  2.435;                                  !- ASHRAE Taud {dimensionless}

OS:WeatherFile,
  {701cbd4a-db64-43f5-96d3-a3adddfb538d}, !- Handle
  PALM-SPRINGS-IAP,                       !- City
  -,                                      !- State Province Region
  USA,                                    !- Country
  Custom-722868,                          !- Data Source
  722868,                                 !- WMO Number
  33.83,                                  !- Latitude {deg}
  -116.5,                                 !- Longitude {deg}
  -8,                                     !- Time Zone {hr}
  137,                                    !- Elevation {m}
  file:///C:/Users/mnakajima/Documents/CBECC-Com 2019 Data/EPW/PALM-SPRINGS-INTL_722868_CZ2010.epw, !- Url
  CED0629B;                               !- Checksum

OS:Sizing:Parameters,
  {71a4c1b6-6109-400d-801b-29a7c3920ee5}, !- Handle
  1,                                      !- Heating Sizing Factor
  1;                                      !- Cooling Sizing Factor

OS:Material,
  {bf9d1648-476a-4ae5-b7fd-b35278544586}, !- Handle
  Gypsum Board - 1/2 in.,                 !- Name
  Smooth,                                 !- Roughness
  0.0127,                                 !- Thickness {m}
  0.158656446866265,                      !- Conductivity {W/m-K}
  640.738534958406,                       !- Density {kg/m3}
  1130.436,                               !- Specific Heat {J/kg-K}
  0.9,                                    !- Thermal Absorptance
  0.7,                                    !- Solar Absorptance
  0.8;                                    !- Visible Absorptance

OS:Material,
  {660e14ac-1a88-4397-89f0-0f53455f5d4f}, !- Handle
  Gypsum Board - 5/8 in.,                 !- Name
  MediumRough,                            !- Roughness
  0.016002,                               !- Thickness {m}
  0.158656446866265,                      !- Conductivity {W/m-K}
  640.738534958406,                       !- Density {kg/m3}
  1130.436,                               !- Specific Heat {J/kg-K}
  0.9,                                    !- Thermal Absorptance
  0.7,                                    !- Solar Absorptance
  0.8;                                    !- Visible Absorptance

OS:Material,
  {853d5f3c-e8f3-4277-93a3-8a32d2789e2b}, !- Handle
  Stucco - 7/8 in.,                       !- Name
  MediumRough,                            !- Roughness
  0.022352,                               !- Thickness {m}
  0.700947539880412,                      !- Conductivity {W/m-K}
  1855.09824333832,                       !- Density {kg/m3}
  837.36,                                 !- Specific Heat {J/kg-K}
  0.9,                                    !- Thermal Absorptance
  0.7,                                    !- Solar Absorptance
  0.8;                                    !- Visible Absorptance

OS:Material,
  {63894f4b-e21c-4bad-8cc5-a820896813fc}, !- Handle
  Carpet - 3/4 in.,                       !- Name
  Smooth,                                 !- Roughness
  0.01905,                                !- Thickness {m}
  0.0455183217255675,                     !- Conductivity {W/m-K}
  288.332340731283,                       !- Density {kg/m3}
  1381.644,                               !- Specific Heat {J/kg-K}
  0.9,                                    !- Thermal Absorptance
  0.7,                                    !- Solar Absorptance
  0.8;                                    !- Visible Absorptance

OS:Material,
  {11f2a826-7b65-48ef-9de3-8b244e7db466}, !- Handle
  Plywood - 5/8 in.,                      !- Name
  Smooth,                                 !- Roughness
  0.016002,                               !- Thickness {m}
  0.115440002246971,                      !- Conductivity {W/m-K}
  480.553901218804,                       !- Density {kg/m3}
  1884.06;                                !- Specific Heat {J/kg-K}

OS:Material,
  {66e2da79-a37b-4f0b-b61f-ca25ad47d27a}, !- Handle
  Concrete - 140 lb/ft3 - 4 in.,          !- Name
  Smooth,                                 !- Roughness
  0.1016,                                 !- Thickness {m}
  1.95140333633374,                       !- Conductivity {W/m-K}
  2239.06081041215,                       !- Density {kg/m3}
  921.096;                                !- Specific Heat {J/kg-K}

OS:Material,
  {3ad190c2-5b24-4473-950b-ff48dc88d264}, !- Handle
  Compliance Insulation R0.10,            !- Name
  Smooth,                                 !- Roughness
  0.000405384,                            !- Thickness {m}
  0.0230187710627394,                     !- Conductivity {W/m-K}
  16.0184633739601,                       !- Density {kg/m3}
  1130.436;                               !- Specific Heat {J/kg-K}

OS:Material,
  {0c72457d-f23d-4e64-ae3b-d085163ac879}, !- Handle
  Concrete - Solid Grout - 115 lb/ft3 - 8 in., !- Name
  Smooth,                                 !- Roughness
  0.2032,                                 !- Thickness {m}
  1.31570449337553,                       !- Conductivity {W/m-K}
  1858.14175137938,                       !- Density {kg/m3}
  837.36;                                 !- Specific Heat {J/kg-K}

OS:Material,
  {f0db70c0-3b22-49ff-b764-47cabd06180d}, !- Handle
  Compliance Insulation R13.99,           !- Name
  Smooth,                                 !- Roughness
  0.05671312,                             !- Thickness {m}
  0.0230187710627394,                     !- Conductivity {W/m-K}
  16.0184633739601,                       !- Density {kg/m3}
  1130.436;                               !- Specific Heat {J/kg-K}

OS:Material,
  {6871f95a-0b6d-41db-bd86-856bcf3d0b18}, !- Handle
  Air - Metal Wall Framing - 16 or 24 in. OC, !- Name
  Smooth,                                 !- Roughness
  0.1397,                                 !- Thickness {m}
  1.22016793979183,                       !- Conductivity {W/m-K}
  1.28147706991681,                       !- Density {kg/m3}
  1004.832;                               !- Specific Heat {J/kg-K}

OS:Material,
  {eeb26342-a183-44de-a117-2d2bed3d5c93}, !- Handle
  Compliance Insulation R14.60,           !- Name
  Smooth,                                 !- Roughness
  0.059186064,                            !- Thickness {m}
  0.0230187710627394,                     !- Conductivity {W/m-K}
  16.0184633739601,                       !- Density {kg/m3}
  1130.436;                               !- Specific Heat {J/kg-K}

OS:Material,
  {29719838-59bc-4ff2-833d-8fdbad9e520f}, !- Handle
  Compliance Insulation R2.00,            !- Name
  Smooth,                                 !- Roughness
  0.00810768,                             !- Thickness {m}
  0.0230187710627394,                     !- Conductivity {W/m-K}
  16.0184633739601,                       !- Density {kg/m3}
  1130.436;                               !- Specific Heat {J/kg-K}

OS:Material,
  {5132f8bf-9363-4a9e-910c-4dde7c4c9415}, !- Handle
  Metal Standing Seam - 1/16 in.,         !- Name
  MediumRough,                            !- Roughness
  0.0015875,                              !- Thickness {m}
  2.21534037295537,                       !- Conductivity {W/m-K}
  7820.53418843482,                       !- Density {kg/m3}
  502.416,                                !- Specific Heat {J/kg-K}
  0.85,                                   !- Thermal Absorptance
  0.37,                                   !- Solar Absorptance
  0.85;                                   !- Visible Absorptance

OS:Material,
  {9929c9d3-3615-4f11-b602-8773ff483c59}, !- Handle
  Compliance Insulation R34.93,           !- Name
  Smooth,                                 !- Roughness
  0.141600682,                            !- Thickness {m}
  0.0230187710627394,                     !- Conductivity {W/m-K}
  16.0184633739601,                       !- Density {kg/m3}
  1130.436,                               !- Specific Heat {J/kg-K}
  0.9,                                    !- Thermal Absorptance
  0.7,                                    !- Solar Absorptance
  0.8;                                    !- Visible Absorptance

OS:Material,
  {234ec009-da06-4470-921f-dac507f85fde}, !- Handle
  Compliance Insulation R28.63,           !- Name
  Smooth,                                 !- Roughness
  0.11606149,                             !- Thickness {m}
  0.0230187710627394,                     !- Conductivity {W/m-K}
  16.0184633739601,                       !- Density {kg/m3}
  1130.436,                               !- Specific Heat {J/kg-K}
  0.9,                                    !- Thermal Absorptance
  0.7,                                    !- Solar Absorptance
  0.8;                                    !- Visible Absorptance

OS:Material,
  {d1bb8f4f-11b4-49e3-904c-fdf5f0706d09}, !- Handle
  Compliance Insulation R21.39,           !- Name
  MediumRough,                            !- Roughness
  0.086711536,                            !- Thickness {m}
  0.0230187710627394,                     !- Conductivity {W/m-K}
  16.0184633739601,                       !- Density {kg/m3}
  1130.436,                               !- Specific Heat {J/kg-K}
  0.9,                                    !- Thermal Absorptance
  0.7,                                    !- Solar Absorptance
  0.8;                                    !- Visible Absorptance

OS:Material,
  {7adeed60-f655-4c3b-93b4-255bfb8c3df4}, !- Handle
  Metal Deck - 1/16 in.,                  !- Name
  MediumRough,                            !- Roughness
  0.0015875,                              !- Thickness {m}
  45.3452482589303,                       !- Conductivity {W/m-K}
  7820.53418843482,                       !- Density {kg/m3}
  502.416,                                !- Specific Heat {J/kg-K}
  0.9,                                    !- Thermal Absorptance
  0.7,                                    !- Solar Absorptance
  0.8;                                    !- Visible Absorptance

OS:Construction,
  {f593d107-0736-4391-90c6-efe797d92b4a}, !- Handle
  MetalFrameWallU062,                     !- Name
  ,                                       !- Surface Rendering Name
  {853d5f3c-e8f3-4277-93a3-8a32d2789e2b}, !- Layer 1
  {f0db70c0-3b22-49ff-b764-47cabd06180d}, !- Layer 2
  {6871f95a-0b6d-41db-bd86-856bcf3d0b18}, !- Layer 3
  {bf9d1648-476a-4ae5-b7fd-b35278544586}; !- Layer 4

OS:Construction,
  {0d6c1b1c-61e5-497f-8893-a316b2adeeef}, !- Handle
  MetalFrameWallU048,                     !- Name
  ,                                       !- Surface Rendering Name
  {c28d6830-0f8b-4574-8c5e-d65f8bec8054}, !- Layer 1
  {eeb26342-a183-44de-a117-2d2bed3d5c93}, !- Layer 2
  {29719838-59bc-4ff2-833d-8fdbad9e520f}, !- Layer 3
  {29719838-59bc-4ff2-833d-8fdbad9e520f}, !- Layer 4
  {3ad190c2-5b24-4473-950b-ff48dc88d264}, !- Layer 5
  {88074d28-cb21-44ca-a2ba-22521460a336}, !- Layer 6
  {46b198fe-865b-48a8-8844-08fd5d920178}; !- Layer 7

OS:Material,
  {c28d6830-0f8b-4574-8c5e-d65f8bec8054}, !- Handle
  Stucco - 7/8 in. 1,                     !- Name
  MediumRough,                            !- Roughness
  0.022352,                               !- Thickness {m}
  0.700947539880412,                      !- Conductivity {W/m-K}
  1855.09824333832,                       !- Density {kg/m3}
  837.36,                                 !- Specific Heat {J/kg-K}
  0.9,                                    !- Thermal Absorptance
  0.7,                                    !- Solar Absorptance
  0.8;                                    !- Visible Absorptance

OS:Material,
  {88074d28-cb21-44ca-a2ba-22521460a336}, !- Handle
  Air - Metal Wall Framing - 16 or 24 in. OC 1, !- Name
  Smooth,                                 !- Roughness
  0.1397,                                 !- Thickness {m}
  1.22016793979183,                       !- Conductivity {W/m-K}
  1.28147706991681,                       !- Density {kg/m3}
  1004.832;                               !- Specific Heat {J/kg-K}

OS:Material,
  {46b198fe-865b-48a8-8844-08fd5d920178}, !- Handle
  Gypsum Board - 1/2 in. 1,               !- Name
  Smooth,                                 !- Roughness
  0.0127,                                 !- Thickness {m}
  0.158656446866265,                      !- Conductivity {W/m-K}
  640.738534958406,                       !- Density {kg/m3}
  1130.436,                               !- Specific Heat {J/kg-K}
  0.9,                                    !- Thermal Absorptance