
OS:Version,
  {daeabb2f-1d3c-4722-9666-98add92e9ebf}, !- Handle
  2.7.2;                                  !- Version Identifier

OS:SimulationControl,
  {5a0a343e-dca0-4c88-b063-6618d824a98f}, !- Handle
  ,                                       !- Do Zone Sizing Calculation
  ,                                       !- Do System Sizing Calculation
  ,                                       !- Do Plant Sizing Calculation
  Yes,                                    !- Run Simulation for Sizing Periods
  No,                                     !- Run Simulation for Weather File Run Periods
  ,                                       !- Loads Convergence Tolerance Value
  ,                                       !- Temperature Convergence Tolerance Value {deltaC}
  FullExterior,                           !- Solar Distribution
  50;                                     !- Maximum Number of Warmup Days

OS:Site,
  {b445d496-dde7-43af-a689-c270d2586a3b}, !- Handle
  CA_PALM-SPRINGS-IAP_USA Design_Conditions, !- Name
  33.83,                                  !- Latitude {deg}
  -116.5,                                 !- Longitude {deg}
  -8,                                     !- Time Zone {hr}
  145.0848,                               !- Elevation {m}
  ;                                       !- Terrain

OS:SizingPeriod:DesignDay,
  {1ae280e0-fd63-410d-963b-1681d12cc9f7}, !- Handle
  CA_PALM-SPRINGS-IAP Ann Htg 99.6% Condns DB, !- Name
  5.1,                                    !- Maximum Dry-Bulb Temperature {C}
  0,                                      !- Daily Dry-Bulb Temperature Range {deltaC}
  5.1,                                    !- Humidity Indicating Conditions at Maximum Dry-Bulb
  99595,                                  !- Barometric Pressure {Pa}
  1.7,                                    !- Wind Speed {m/s}
  330,                                    !- Wind Direction {deg}
  0,                                      !- Sky Clearness
  0,                                      !- Rain Indicator
  0,                                      !- Snow Indicator
  21,                                     !- Day of Month
  12,                                     !- Month
  WinterDesignDay,                        !- Day Type
  0,                                      !- Daylight Saving Time Indicator
  Wetbulb,                                !- Humidity Indicating Type
  ,                                       !- Humidity Indicating Day Schedule Name
  DefaultMultipliers,                     !- Dry-Bulb Temperature Range Modifier Type
  ,                                       !- Dry-Bulb Temperature Range Modifier Schedule Name
  ASHRAEClearSky;                         !- Solar Model Indicator

OS:SizingPeriod:DesignDay,
  {004a4056-df90-4e8f-b536-8da4fac988f3}, !- Handle
  CA_PALM-SPRINGS-IAP Ann Clg .4% Condns DB=>MWB, !- Name
  44.1,                                   !- Maximum Dry-Bulb Temperature {C}
  14.4,                                   !- Daily Dry-Bulb Temperature Range {deltaC}
  21.5,                                   !- Humidity Indicating Conditions at Maximum Dry-Bulb
  99595,                                  !- Barometric Pressure {Pa}
  4.5,                                    !- Wind Speed {m/s}
  320,                                    !- Wind Direction {deg}
  0,                                      !- Sky Clearness
  0,                                      !- Rain Indicator
  0,                                      !- Snow Indicator
  21,                                     !- Day of Month
  7,                                      !- Month
  SummerDesignDay,                        !- Day Type
  0,                                      !- Daylight Saving Time Indicator
  Wetbulb,                                !- Humidity Indicating Type
  ,                                       !- Humidity Indicating Day Schedule Name
  DefaultMultipliers,                     !- Dry-Bulb Temperature Range Modifier Type
  ,                                       !- Dry-Bulb Temperature Range Modifier Schedule Name
  ASHRAETau,                              !- Solar Model Indicator
  ,                                       !- Beam Solar Day Schedule Name
  ,                                       !- Diffuse Solar Day Schedule Name
  0.401,                                  !- ASHRAE Taub {dimensionless}
  2.372;                                  !- ASHRAE Taud {dimensionless}

OS:SizingPeriod:DesignDay,
  {496d0110-4bed-4dc5-b45a-9db14363cfda}, !- Handle
  CA_PALM-SPRINGS-IAP Ann Clg .4% Condns WB=>MDB, !- Name
  36.8,                                   !- Maximum Dry-Bulb Temperature {C}
  14.4,                                   !- Daily Dry-Bulb Temperature Range {deltaC}
  25.9,                                   !- Humidity Indicating Conditions at Maximum Dry-Bulb
  99595,                                  !- Barometric Pressure {Pa}
  4.5,                                    !- Wind Speed {m/s}
  320,                                    !- Wind Direction {deg}
  0,                                      !- Sky Clearness
  0,                                      !- Rain Indicator
  0,                                      !- Snow Indicator
  21,                                     !- Day of Month
  7,                                      !- Month
  SummerDesignDay,                        !- Day Type
  0,                                      !- Daylight Saving Time Indicator
  Wetbulb,                                !- Humidity Indicating Type
  ,                                       !- Humidity Indicating Day Schedule Name
  DefaultMultipliers,                     !- Dry-Bulb Temperature Range Modifier Type
  ,                                       !- Dry-Bulb Temperature Range Modifier Schedule Name
  ASHRAETau,                              !- Solar Model Indicator
  ,                                       !- Beam Solar Day Schedule Name
  ,                                       !- Diffuse Solar Day Schedule Name
  0.401,                                  !- ASHRAE Taub {dimensionless}
  2.372;                                  !- ASHRAE Taud {dimensionless}

OS:SizingPeriod:DesignDay,
  {7438098f-73d7-42cf-8a1d-04fe39e2faad}, !- Handle
  CA_PALM-SPRINGS-IAP Ann Clg .4% Condns DP=>MDB, !- Name
  32.6,                                   !- Maximum Dry-Bulb Temperature {C}
  14.4,                                   !- Daily Dry-Bulb Temperature Range {deltaC}
  22.8,                                   !- Humidity Indicating Conditions at Maximum Dry-Bulb
  99595,                                  !- Barometric Pressure {Pa}
  4.5,                                    !- Wind Speed {m/s}
  320,                                    !- Wind Direction {deg}
  0,                                      !- Sky Clearness
  0,                                      !- Rain Indicator
  0,                                      !- Snow Indicator
  21,                                     !- Day of Month
  7,                                      !- Month
  SummerDesignDay,                        !- Day Type
  0,                                      !- Daylight Saving Time Indicator
  Dewpoint,                               !- Humidity Indicating Type
  ,                                       !- Humidity Indicating Day Schedule Name
  DefaultMultipliers,                     !- Dry-Bulb Temperature Range Modifier Type
  ,                                       !- Dry-Bulb Temperature Range Modifier Schedule Name
  ASHRAETau,                              !- Solar Model Indicator
  ,                                       !- Beam Solar Day Schedule Name
  ,                                       !- Diffuse Solar Day Schedule Name
  0.401,                                  !- ASHRAE Taub {dimensionless}
  2.372;                                  !- ASHRAE Taud {dimensionless}

OS:SizingPeriod:DesignDay,
  {3888230e-9e16-4b19-9f05-9c5a3b176d5d}, !- Handle
  CA_PALM-SPRINGS-IAP June .4% Condns DB=>MCWB, !- Name
  45,                                     !- Maximum Dry-Bulb Temperature {C}
  16.1,                                   !- Daily Dry-Bulb Temperature Range {deltaC}
  19.7,                                   !- Humidity Indicating Conditions at Maximum Dry-Bulb
  99595,                                  !- Barometric Pressure {Pa}
  3.7,                                    !- Wind Speed {m/s}
  320,                                    !- Wind Direction {deg}
  0,                                      !- Sky Clearness
  0,                                      !- Rain Indicator
  0,                                      !- Snow Indicator
  21,                                     !- Day of Month
  6,                                      !- Month
  SummerDesignDay,                        !- Day Type
  0,                                      !- Daylight Saving Time Indicator
  Wetbulb,                                !- Humidity Indicating Type
  ,                                       !- Humidity Indicating Day Schedule Name
  DefaultMultipliers,                     !- Dry-Bulb Temperature Range Modifier Type
  ,                                       !- Dry-Bulb Temperature Range Modifier Schedule Name
  ASHRAETau,                              !- Solar Model Indicator
  ,                                       !- Beam Solar Day Schedule Name
  ,                                       !- Diffuse Solar Day Schedule Name
  0.368,                                  !- ASHRAE Taub {dimensionless}
  2.376;                                  !- ASHRAE Taud {dimensionless}

OS:SizingPeriod:DesignDay,
  {f36eeb47-1f4a-4063-afa4-8ebcaa4abb37}, !- Handle
  CA_PALM-SPRINGS-IAP July .4% Condns DB=>MCWB, !- Name
  47.1,                                   !- Maximum Dry-Bulb Temperature {C}
  14.4,                                   !- Daily Dry-Bulb Temperature Range {deltaC}
  23.6,                                   !- Humidity Indicating Conditions at Maximum Dry-Bulb
  99595,                                  !- Barometric Pressure {Pa}
  3.2,                                    !- Wind Speed {m/s}
  320,                                    !- Wind Direction {deg}
  0,                                      !- Sky Clearness
  0,                                      !- Rain Indicator
  0,                                      !- Snow Indicator
  21,                                     !- Day of Month
  7,                                      !- Month
  SummerDesignDay,                        !- Day Type
  0,                                      !- Daylight Saving Time Indicator
  Wetbulb,                                !- Humidity Indicating Type
  ,                                       !- Humidity Indicating Day Schedule Name
  DefaultMultipliers,                     !- Dry-Bulb Temperature Range Modifier Type
  ,                                       !- Dry-Bulb Temperature Range Modifier Schedule Name
  ASHRAETau,                              !- Solar Model Indicator
  ,                                       !- Beam Solar Day Schedule Name
  ,                                       !- Diffuse Solar Day Schedule Name
  0.401,                                  !- ASHRAE Taub {dimensionless}
  2.372;                                  !- ASHRAE Taud {dimensionless}

OS:SizingPeriod:DesignDay,
  {e94cd28a-9876-4ea8-95b2-4382636e10c7}, !- Handle
  CA_PALM-SPRINGS-IAP August .4% Condns DB=>MCWB, !- Name
  46,                                     !- Maximum Dry-Bulb Temperature {C}
  14.2,                                   !- Daily Dry-Bulb Temperature Range {deltaC}
  22.7,                                   !- Humidity Indicating Conditions at Maximum Dry-Bulb
  99595,                                  !- Barometric Pressure {Pa}
  2.9,                                    !- Wind Speed {m/s}
  320,                                    !- Wind Direction {deg}
  0,                                      !- Sky Clearness
  0,                                      !- Rain Indicator
  0,                                      !- Snow Indicator
  21,                                     !- Day of Month
  8,                                      !- Month
  SummerDesignDay,                        !- Day Type
  0,                                      !- Daylight Saving Time Indicator
  Wetbulb,                                !- Humidity Indicating Type
  ,                                       !- Humidity Indicating Day Schedule Name
  DefaultMultipliers,                     !- Dry-Bulb Temperature Range Modifier Type
  ,                                       !- Dry-Bulb Temperature Range Modifier Schedule Name
  ASHRAETau,                              !- Solar Model Indicator
  ,                                       !- Beam Solar Day Schedule Name
  ,                                       !- Diffuse Solar Day Schedule Name
  0.391,                                  !- ASHRAE Taub {dimensionless}
  2.385;                                  !- ASHRAE Taud {dimensionless}

OS:SizingPeriod:DesignDay,
  {7a348a5a-1f59-4e23-a397-2bd3d8c048d1}, !- Handle
  CA_PALM-SPRINGS-IAP September .4% Condns DB=>MCWB, !- Name
  43.6,                                   !- Maximum Dry-Bulb Temperature {C}
  14.2,                                   !- Daily Dry-Bulb Temperature Range {deltaC}
  20.4,                                   !- Humidity Indicating Conditions at Maximum Dry-Bulb
  99595,                                  !- Barometric Pressure {Pa}
  2.9,                                    !- Wind Speed {m/s}
  320,                                    !- Wind Direction {deg}
  0,                                      !- Sky Clearness
  0,                                      !- Rain Indicator
  0,                                      !- Snow Indicator
  21,                                     !- Day of Month
  9,                                      !- Month
  SummerDesignDay,                        !- Day Type
  0,                                      !- Daylight Saving Time Indicator
  Wetbulb,                                !- Humidity Indicating Type
  ,                                       !- Humidity Indicating Day Schedule Name
  DefaultMultipliers,                     !- Dry-Bulb Temperature Range Modifier Type
  ,                                       !- Dry-Bulb Temperature Range Modifier Schedule Name
  ASHRAETau,                              !- Solar Model Indicator
  ,                                       !- Beam Solar Day Schedule Name
  ,                                       !- Diffuse Solar Day Schedule Name
  0.359,                                  !- ASHRAE Taub {dimensionless}
  2.447;                                  !- ASHRAE Taud {dimensionless}

OS:SizingPeriod:DesignDay,
  {0b47ed8f-ab4f-4530-9ffa-658d83789af2}, !- Handle
  CA_PALM-SPRINGS-IAP October .4% Condns DB=>MCWB, !- Name
  39,                                     !- Maximum Dry-Bulb Temperature {C}
  13.5,                                   !- Daily Dry-Bulb Temperature Range {deltaC}
  18.6,                                   !- Humidity Indicating Conditions at Maximum Dry-Bulb
  99595,                                  !- Barometric Pressure {Pa}
  2.7,                                    !- Wind Speed {m/s}
  320,                                    !- Wind Direction {deg}
  0,                                      !- Sky Clearness
  0,                                      !- Rain Indicator
  0,                                      !- Snow Indicator
  21,                                     !- Day of Month
  10,                                     !- Month
  SummerDesignDay,                        !- Day Type
  0,                                      !- Daylight Saving Time Indicator
  Wetbulb,                                !- Humidity Indicating Type
  ,                                       !- Humidity Indicating Day Schedule Name
  DefaultMultipliers,                     !- Dry-Bulb Temperature Range Modifier Type
  ,                                       !- Dry-Bulb Temperature Range Modifier Schedule Name
  ASHRAETau,                              !- Solar Model Indicator
  ,                                       !- Beam Solar Day Schedule Name
  ,                                       !- Diffuse Solar Day Schedule Name
  0.349,                                  !- ASHRAE Taub {dimensionless}
  2.423;                                  !- ASHRAE Taud {dimensionless}

OS:SizingPeriod:DesignDay,
  {efeee55e-80e6-41d1-8029-df924850c52d}, !- Handle
  CA_PALM-SPRINGS-IAP November .4% Condns DB=>MCWB, !- Name
  33,                                     !- Maximum Dry-Bulb Temperature {C}
  12.4,                                   !- Daily Dry-Bulb Temperature Range {deltaC}
  15.4,                                   !- Humidity Indicating Conditions at Maximum Dry-Bulb
  99595,                                  !- Barometric Pressure {Pa}
  2.4,                                    !- Wind Speed {m/s}
  320,                                    !- Wind Direction {deg}
  0,                                      !- Sky Clearness
  0,                                      !- Rain Indicator
  0,                                      !- Snow Indicator
  21,                                     !- Day of Month
  11,                                     !- Month
  SummerDesignDay,                        !- Day Type
  0,                                      !- Daylight Saving Time Indicator
  Wetbulb,                                !- Humidity Indicating Type
  ,                                       !- Humidity Indicating Day Schedule Name
  DefaultMultipliers,                     !- Dry-Bulb Temperature Range Modifier Type
  ,                                       !- Dry-Bulb Temperature Range Modifier Schedule Name
  ASHRAETau,                              !- Solar Model Indicator
  ,                                       !- Beam Solar Day Schedule Name
  ,                                       !- Diffuse Solar Day Schedule Name
  0.313,                                  !- ASHRAE Taub {dimensionless}
  2.512;                                  !- ASHRAE Taud {dimensionless}

OS:WeatherFile,
  {afd93095-4ea9-4ed0-b71a-adc58053087c}, !- Handle
  CA_PALM-SPRINGS-IAP,                    !- City
  -,                                      !- State Province Region
  USA,                                    !- Country
  Custom-722868,                          !- Data Source
  722868,                                 !- WMO Number
  33.83,                                  !- Latitude {deg}
  -116.5,                                 !- Longitude {deg}
  -8,                                     !- Time Zone {hr}
  145,                                    !- Elevation {m}
  file:///C:/Users/mnakajima/Documents/CBECC-Com 2022 Data/EPW/CTZ15S22A.epw, !- Url
  6AB3FB60;                               !- Checksum

OS:Sizing:Parameters,
  {d86e6e4f-be68-4f0f-9062-cc08edd25433}, !- Handle
  1,                                      !- Heating Sizing Factor
  1;                                      !- Cooling Sizing Factor

OS:Material,
  {977f3435-d99f-408c-9d7f-b759fe078931}, !- Handle
  Gypsum Board - 1/2 in.,                 !- Name
  Smooth,                                 !- Roughness
  0.0127,                                 !- Thickness {m}
  0.158656446866265,                      !- Conductivity {W/m-K}
  640.738534958406,                       !- Density {kg/m3}
  1130.436,                               !- Specific Heat {J/kg-K}
  0.9,                                    !- Thermal Absorptance
  0.7,                                    !- Solar Absorptance
  0.8;                                    !- Visible Absorptance

OS:Material,
  {91fa561f-ce9a-4b13-a067-e2c8e5e00152}, !- Handle
  Gypsum Board - 5/8 in.,                 !- Name
  MediumRough,                            !- Roughness
  0.016002,                               !- Thickness {m}
  0.158656446866265,                      !- Conductivity {W/m-K}
  640.738534958406,                       !- Density {kg/m3}
  1130.436,                               !- Specific Heat {J/kg-K}
  0.9,                                    !- Thermal Absorptance
  0.7,                                    !- Solar Absorptance
  0.8;                                    !- Visible Absorptance

OS:Material,
  {02cfb0cd-d185-4e3f-b2d9-ad25a6685120}, !- Handle
  Stucco - 7/8 in.,                       !- Name
  MediumRough,                            !- Roughness
  0.022352,                               !- Thickness {m}
  0.700947539880412,                      !- Conductivity {W/m-K}
  1855.09824333832,                       !- Density {kg/m3}
  837.36,                                 !- Specific Heat {J/kg-K}
  0.9,                                    !- Thermal Absorptance
  0.7,                                    !- Solar Absorptance
  0.8;                                    !- Visible Absorptance

OS:Material,
  {6945134c-a324-41b1-a8db-738c3c38baed}, !- Handle
  Carpet - 3/4 in.,                       !- Name
  Smooth,                                 !- Roughness
  0.01905,                                !- Thickness {m}
  0.0455183217255675,                     !- Conductivity {W/m-K}
  288.332340731283,                       !- Density {kg/m3}
  1381.644,                               !- Specific Heat {J/kg-K}
  0.9,                                    !- Thermal Absorptance
  0.7,                                    !- Solar Absorptance
  0.8;                                    !- Visible Absorptance

OS:Material,
  {b3abc482-49c2-4a42-9484-2e352f8273ba}, !- Handle
  Plywood - 5/8 in.,                      !- Name
  Smooth,                                 !- Roughness
  0.016002,                               !- Thickness {m}
  0.115440002246971,                      !- Conductivity {W/m-K}
  480.553901218804,                       !- Density {kg/m3}
  1884.06;                                !- Specific Heat {J/kg-K}

OS:Material,
  {190e7c4d-42b8-4f65-987c-05793b8dc801}, !- Handle
  Concrete - 140 lb/ft3 - 4 in.,          !- Name
  Smooth,                                 !- Roughness
  0.1016,                                 !- Thickness {m}
  1.95140333633374,                       !- Conductivity {W/m-K}
  2239.06081041215,                       !- Density {kg/m3}
  921.096;                                !- Specific Heat {J/kg-K}

OS:Material,
  {f23779f5-fcfc-48c5-9e67-ac50e1e359f1}, !- Handle
  Compliance Insulation R0.10,            !- Name
  Smooth,                                 !- Roughness
  0.000405384,                            !- Thickness {m}
  0.0230187710627394,                     !- Conductivity {W/m-K}
  16.0184633739601,                       !- Density {kg/m3}
  1130.436;                               !- Specific Heat {J/kg-K}

OS:Material,
  {f68555c0-a645-42a9-beaf-3a72827b3f44}, !- Handle
  Concrete - Solid Grout - 115 lb/ft3 - 8 in., !- Name
  Smooth,                                 !- Roughness
  0.2032,                                 !- Thickness {m}
  1.31570449337553,                       !- Conductivity {W/m-K}
  1858.14175137938,                       !- Density {kg/m3}
  837.36;                                 !- Specific Heat {J/kg-K}

OS:Material,
  {0536f7c7-dc61-4d22-9d2c-1dccad18dac4}, !- Handle
  Compliance Insulation R13.99,           !- Name
  Smooth,                                 !- Roughness
  0.05671312,                             !- Thickness {m}
  0.0230187710627394,                     !- Conductivity {W/m-K}
  16.0184633739601,                       !- Density {kg/m3}
  1130.436;                               !- Specific Heat {J/kg-K}

OS:Material,
  {a5368f08-8d6d-4d15-b55e-940a15b2abb6}, !- Handle
  Air - Metal Wall Framing - 16 or 24 in. OC, !- Name
  Smooth,                                 !- Roughness
  0.1397,                                 !- Thickness {m}
  1.22016793979183,                       !- Conductivity {W/m-K}
  1.28147706991681,                       !- Density {kg/m3}
  1004.832;                               !- Specific Heat {J/kg-K}

OS:Material,
  {3034be6d-615b-4de4-9bed-24b6f54ea75d}, !- Handle
  Compliance Insulation R14.60,           !- Name
  Smooth,                                 !- Roughness
  0.059186064,                            !- Thickness {m}
  0.0230187710627394,                     !- Conductivity {W/m-K}
  16.0184633739601,                       !- Density {kg/m3}
  1130.436;                               !- Specific Heat {J/kg-K}

OS:Material,
  {a26122c0-ac35-4c2d-8c3e-a65f8764ec9d}, !- Handle
  Compliance Insulation R2.00,            !- Name
  Smooth,                                 !- Roughness
  0.00810768,                             !- Thickness {m}
  0.0230187710627394,                     !- Conductivity {W/m-K}
  16.0184633739601,                       !- Density {kg/m3}
  1130.436;                               !- Specific Heat {J/kg-K}

OS:Material,
  {13237403-11fc-43f1-bd63-8b34e34cedcf}, !- Handle
  Metal Standing Seam - 1/16 in.,         !- Name
  MediumRough,                            !- Roughness
  0.0015875,                              !- Thickness {m}
  2.21534037295537,                       !- Conductivity {W/m-K}
  7820.53418843482,                       !- Density {kg/m3}
  502.416,                                !- Specific Heat {J/kg-K}
  0.85,                                   !- Thermal Absorptance
  0.37,                                   !- Solar Absorptance
  0.85;                                   !- Visible Absorptance

OS:Material,
  {472a992a-31e6-46e1-933c-a51846a4c051}, !- Handle
  Compliance Insulation R34.93,           !- Name
  Smooth,                                 !- Roughness
  0.141600682,                            !- Thickness {m}
  0.0230187710627394,                     !- Conductivity {W/m-K}
  16.0184633739601,                       !- Density {kg/m3}
  1130.436,                               !- Specific Heat {J/kg-K}
  0.9,                                    !- Thermal Absorptance
  0.7,                                    !- Solar Absorptance
  0.8;                                    !- Visible Absorptance

OS:Material,
  {29b75348-2838-4b32-9bf4-4f4547b423dd}, !- Handle
  Compliance Insulation R28.63,           !- Name
  Smooth,                                 !- Roughness
  0.11606149,                             !- Thickness {m}
  0.0230187710627394,                     !- Conductivity {W/m-K}
  16.0184633739601,                       !- Density {kg/m3}
  1130.436,                               !- Specific Heat {J/kg-K}
  0.9,                                    !- Thermal Absorptance
  0.7,                                    !- Solar Absorptance
  0.8;                                    !- Visible Absorptance

OS:Material,
  {53a6dfcb-ab05-475e-82e8-b6a947527b1b}, !- Handle
  Compliance Insulation R21.39,           !- Name
  MediumRough,                            !- Roughness
  0.086711536,                            !- Thickness {m}
  0.0230187710627394,                     !- Conductivity {W/m-K}
  16.0184633739601,                       !- Density {kg/m3}
  1130.436,                               !- Specific Heat {J/kg-K}
  0.9,                                    !- Thermal Absorptance
  0.7,                                    !- Solar Absorptance
  0.8;                                    !- Visible Absorptance

OS:Material,
  {f36da722-2a81-4ce5-8873-55f962c42a1c}, !- Handle
  Metal Deck - 1/16 in.,                  !- Name
  MediumRough,                            !- Roughness
  0.0015875,                              !- Thickness {m}
  45.3452482589303,                       !- Conductivity {W/m-K}
  7820.53418843482,                       !- Density {kg/m3}
  502.416,                                !- Specific Heat {J/kg-K}
  0.9,                                    !- Thermal Absorptance
  0.7,                                    !- Solar Absorptance
  0.8;                                    !- Visible Absorptance

OS:Construction,
  {3b33e2d2-1d1a-45a4-a364-8388a8a9de29}, !- Handle
  MetalFrameWallU062,                     !- Name
  ,                                       !- Surface Rendering Name
  {02cfb0cd-d185-4e3f-b2d9-ad25a6685120}, !- Layer 1
  {0536f7c7-dc61-4d22-9d2c-1dccad18dac4}, !- Layer 2
  {a5368f08-8d6d-4d15-b55e-940a15b2abb6}, !- Layer 3
  {977f3435-d99f-408c-9d7f-b759fe078931}; !- Layer 4

OS:Construction,
  {114521bd-bc51-41b3-8e78-30987ae77ab3}, !- Handle
  MetalFrameWallU048,                     !- Name
  ,                                       !- Surface Rendering Name
  {dc65f31b-6147-420c-8641-4bf39e212ea7}, !- Layer 1
  {3034be6d-615b-4de4-9bed-24b6f54ea75d}, !- Layer 2
  {a26122c0-ac35-4c2d-8c3e-a65f8764ec9d}, !- Layer 3
  {a26122c0-ac35-4c2d-8c3e-a65f8764ec9d}, !- Layer 4
  {f23779f5-fcfc-48c5-9e67-ac50e1e359f1}, !- Layer 5
  {b719328d-8233-451f-8859-d6c8d344bb99}, !- Layer 6
  {c22ca517-e200-4232-ac37-981ae4c23370}; !- Layer 7

OS:Material,
  {dc65f31b-6147-420c-8641-4bf39e212ea7}, !- Handle
  Stucco - 7/8 in. 1,                     !- Name
  MediumRough,                            !- Roughness
  0.022352,                               !- Thickness {m}
  0.700947539880412,                      !- Conductivity {W/m-K}
  1855.09824333832,                       !- Density {kg/m3}
  837.36,                                 !- Specific Heat {J/kg-K}
  0.9,                                    !- Thermal Absorptance
  0.7,                                    !- Solar Absorptance
  0.8;                                    !- Visible Absorptance

OS:Material,
  {b719328d-8233-451f-8859-d6c8d344bb99}, !- Handle
  Air - Metal Wall Framing - 16 or 24 in. OC 1, !- Name
  Smooth,                                 !- Roughness
  0.1397,                                 !- Thickness {m}
  1.22016793979183,                       !- Conductivity {W/m-K}
  1.28147706991681,                       !- Density {kg/m3}