
OS:Version,
  {b1ac9f02-47e4-4def-aab5-9b023abf690a}, !- Handle
  2.7.2;                                  !- Version Identifier

OS:SimulationControl,
  {ef787821-d93c-4d2d-8c52-8d918ee403c6}, !- Handle
  ,                                       !- Do Zone Sizing Calculation
  ,                                       !- Do System Sizing Calculation
  ,                                       !- Do Plant Sizing Calculation
  No,                                     !- Run Simulation for Sizing Periods
  Yes,                                    !- Run Simulation for Weather File Run Periods
  ,                                       !- Loads Convergence Tolerance Value
  ,                                       !- Temperature Convergence Tolerance Value {deltaC}
  FullExterior,                           !- Solar Distribution
  50;                                     !- Maximum Number of Warmup Days

OS:YearDescription,
  {d512cfa3-fbac-41a7-a9a4-ddea9fdb5f63}, !- Handle
  2009,                                   !- Calendar Year
  ,                                       !- Day of Week for Start Day
  ;                                       !- Is Leap Year

OS:RunPeriod,
  {cbf26c48-d811-4264-bb91-7f65a0012522}, !- Handle
  BURBANK-GLENDALE_722880_CZ2010,         !- Name
  1,                                      !- Begin Month
  1,                                      !- Begin Day of Month
  12,                                     !- End Month
  31,                                     !- End Day of Month
  No,                                     !- Use Weather File Holidays and Special Days
  No,                                     !- Use Weather File Daylight Saving Period
  Yes,                                    !- Apply Weekend Holiday Rule
  ,                                       !- Use Weather File Rain Indicators
  ,                                       !- Use Weather File Snow Indicators
  ;                                       !- Number of Times Runperiod to be Repeated

OS:Site,
  {0bef5f8a-4d29-4730-ae01-d24f830ed72c}, !- Handle
  BURBANK-GLENDALE-PASSADE Design_Conditions, !- Name
  34.2,                                   !- Latitude {deg}
  -118.33,                                !- Longitude {deg}
  -8,                                     !- Time Zone {hr}
  224.9424,                               !- Elevation {m}
  ;                                       !- Terrain

OS:SizingPeriod:DesignDay,
  {5baa59b9-6e6f-4e44-894e-45bbea472ec3}, !- Handle
  BURBANK-GLENDALE-PASSADE Ann Htg 99.6% Condns DB, !- Name
  4,                                      !- Maximum Dry-Bulb Temperature {C}
  0,                                      !- Daily Dry-Bulb Temperature Range {deltaC}
  4,                                      !- Humidity Indicating Conditions at Maximum Dry-Bulb
  98651,                                  !- Barometric Pressure {Pa}
  0.9,                                    !- Wind Speed {m/s}
  0,                                      !- Wind Direction {deg}
  0,                                      !- Sky Clearness
  0,                                      !- Rain Indicator
  0,                                      !- Snow Indicator
  21,                                     !- Day of Month
  1,                                      !- Month
  WinterDesignDay,                        !- Day Type
  0,                                      !- Daylight Saving Time Indicator
  Wetbulb,                                !- Humidity Indicating Type
  ,                                       !- Humidity Indicating Day Schedule Name
  DefaultMultipliers,                     !- Dry-Bulb Temperature Range Modifier Type
  ,                                       !- Dry-Bulb Temperature Range Modifier Schedule Name
  ASHRAEClearSky;                         !- Solar Model Indicator

OS:SizingPeriod:DesignDay,
  {583de6e7-c388-4336-b229-2fdff288828f}, !- Handle
  BURBANK-GLENDALE-PASSADE Ann Clg 0.4% Condns DB=>MCWB, !- Name
  36.1,                                   !- Maximum Dry-Bulb Temperature {C}
  12.4,                                   !- Daily Dry-Bulb Temperature Range {deltaC}
  20.3,                                   !- Humidity Indicating Conditions at Maximum Dry-Bulb
  98651,                                  !- Barometric Pressure {Pa}
  3.1,                                    !- Wind Speed {m/s}
  180,                                    !- Wind Direction {deg}
  0,                                      !- Sky Clearness
  0,                                      !- Rain Indicator
  0,                                      !- Snow Indicator
  21,                                     !- Day of Month
  8,                                      !- Month
  SummerDesignDay,                        !- Day Type
  0,                                      !- Daylight Saving Time Indicator
  Wetbulb,                                !- Humidity Indicating Type
  ,                                       !- Humidity Indicating Day Schedule Name
  DefaultMultipliers,                     !- Dry-Bulb Temperature Range Modifier Type
  ,                                       !- Dry-Bulb Temperature Range Modifier Schedule Name
  ASHRAETau,                              !- Solar Model Indicator
  ,                                       !- Beam Solar Day Schedule Name
  ,                                       !- Diffuse Solar Day Schedule Name
  0.436,                                  !- ASHRAE Taub {dimensionless}
  2.104;                                  !- ASHRAE Taud {dimensionless}

OS:SizingPeriod:DesignDay,
  {b724ca90-6ca1-4562-8c02-09f35adc99a7}, !- Handle
  BURBANK-GLENDALE-PASSADE Ann Clg 0.4% Condns DP=>MCDB, !- Name
  25.5,                                   !- Maximum Dry-Bulb Temperature {C}
  12.4,                                   !- Daily Dry-Bulb Temperature Range {deltaC}
  20,                                     !- Humidity Indicating Conditions at Maximum Dry-Bulb
  98651,                                  !- Barometric Pressure {Pa}
  0,                                      !- Wind Speed {m/s}
  180,                                    !- Wind Direction {deg}
  0,                                      !- Sky Clearness
  0,                                      !- Rain Indicator
  0,                                      !- Snow Indicator
  21,                                     !- Day of Month
  8,                                      !- Month
  SummerDesignDay,                        !- Day Type
  0,                                      !- Daylight Saving Time Indicator
  Dewpoint,                               !- Humidity Indicating Type
  ,                                       !- Humidity Indicating Day Schedule Name
  DefaultMultipliers,                     !- Dry-Bulb Temperature Range Modifier Type
  ,                                       !- Dry-Bulb Temperature Range Modifier Schedule Name
  ASHRAETau,                              !- Solar Model Indicator
  ,                                       !- Beam Solar Day Schedule Name
  ,                                       !- Diffuse Solar Day Schedule Name
  0.436,                                  !- ASHRAE Taub {dimensionless}
  2.104;                                  !- ASHRAE Taud {dimensionless}

OS:SizingPeriod:DesignDay,
  {259b1794-3267-462a-9d07-899cb8f33b69}, !- Handle
  BURBANK-GLENDALE-PASSADE JUN Clg 0.4% Condns DB=>MCWB, !- Name
  36.1,                                   !- Maximum Dry-Bulb Temperature {C}
  12.3,                                   !- Daily Dry-Bulb Temperature Range {deltaC}
  19.6,                                   !- Humidity Indicating Conditions at Maximum Dry-Bulb
  98651,                                  !- Barometric Pressure {Pa}
  3.7,                                    !- Wind Speed {m/s}
  112,                                    !- Wind Direction {deg}
  0,                                      !- Sky Clearness
  0,                                      !- Rain Indicator
  0,                                      !- Snow Indicator
  21,                                     !- Day of Month
  6,                                      !- Month
  SummerDesignDay,                        !- Day Type
  0,                                      !- Daylight Saving Time Indicator
  Wetbulb,                                !- Humidity Indicating Type
  ,                                       !- Humidity Indicating Day Schedule Name
  DefaultMultipliers,                     !- Dry-Bulb Temperature Range Modifier Type
  ,                                       !- Dry-Bulb Temperature Range Modifier Schedule Name
  ASHRAETau,                              !- Solar Model Indicator
  ,                                       !- Beam Solar Day Schedule Name
  ,                                       !- Diffuse Solar Day Schedule Name
  0.391,                                  !- ASHRAE Taub {dimensionless}
  2.265;                                  !- ASHRAE Taud {dimensionless}

OS:SizingPeriod:DesignDay,
  {baa16d68-ff42-4fc1-972a-085e1db53abc}, !- Handle
  BURBANK-GLENDALE-PASSADE JUL Clg 0.4% Condns DB=>MCWB, !- Name
  37.2,                                   !- Maximum Dry-Bulb Temperature {C}
  11.8,                                   !- Daily Dry-Bulb Temperature Range {deltaC}
  23.7,                                   !- Humidity Indicating Conditions at Maximum Dry-Bulb
  98651,                                  !- Barometric Pressure {Pa}
  3,                                      !- Wind Speed {m/s}
  157,                                    !- Wind Direction {deg}
  0,                                      !- Sky Clearness
  0,                                      !- Rain Indicator
  0,                                      !- Snow Indicator
  21,                                     !- Day of Month
  7,                                      !- Month
  SummerDesignDay,                        !- Day Type
  0,                                      !- Daylight Saving Time Indicator
  Wetbulb,                                !- Humidity Indicating Type
  ,                                       !- Humidity Indicating Day Schedule Name
  DefaultMultipliers,                     !- Dry-Bulb Temperature Range Modifier Type
  ,                                       !- Dry-Bulb Temperature Range Modifier Schedule Name
  ASHRAETau,                              !- Solar Model Indicator
  ,                                       !- Beam Solar Day Schedule Name
  ,                                       !- Diffuse Solar Day Schedule Name
  0.451,                                  !- ASHRAE Taub {dimensionless}
  2.039;                                  !- ASHRAE Taud {dimensionless}

OS:SizingPeriod:DesignDay,
  {1ed03e58-7ff0-4892-8674-aa0ee8add29a}, !- Handle
  BURBANK-GLENDALE-PASSADE AUG Clg 0.4% Condns DB=>MCWB, !- Name
  38,                                     !- Maximum Dry-Bulb Temperature {C}
  12.4,                                   !- Daily Dry-Bulb Temperature Range {deltaC}
  22.7,                                   !- Humidity Indicating Conditions at Maximum Dry-Bulb
  98651,                                  !- Barometric Pressure {Pa}
  3.1,                                    !- Wind Speed {m/s}
  180,                                    !- Wind Direction {deg}
  0,                                      !- Sky Clearness
  0,                                      !- Rain Indicator
  0,                                      !- Snow Indicator
  21,                                     !- Day of Month
  8,                                      !- Month
  SummerDesignDay,                        !- Day Type
  0,                                      !- Daylight Saving Time Indicator
  Wetbulb,                                !- Humidity Indicating Type
  ,                                       !- Humidity Indicating Day Schedule Name
  DefaultMultipliers,                     !- Dry-Bulb Temperature Range Modifier Type
  ,                                       !- Dry-Bulb Temperature Range Modifier Schedule Name
  ASHRAETau,                              !- Solar Model Indicator
  ,                                       !- Beam Solar Day Schedule Name
  ,                                       !- Diffuse Solar Day Schedule Name
  0.436,                                  !- ASHRAE Taub {dimensionless}
  2.104;                                  !- ASHRAE Taud {dimensionless}

OS:SizingPeriod:DesignDay,
  {7b47484f-aff5-4ee5-ae20-954fb530bd2b}, !- Handle
  BURBANK-GLENDALE-PASSADE SEP Clg 0.4% Condns DB=>MCWB, !- Name
  38.8,                                   !- Maximum Dry-Bulb Temperature {C}
  12.3,                                   !- Daily Dry-Bulb Temperature Range {deltaC}
  21.9,                                   !- Humidity Indicating Conditions at Maximum Dry-Bulb
  98651,                                  !- Barometric Pressure {Pa}
  4.6,                                    !- Wind Speed {m/s}
  180,                                    !- Wind Direction {deg}
  0,                                      !- Sky Clearness
  0,                                      !- Rain Indicator
  0,                                      !- Snow Indicator
  21,                                     !- Day of Month
  9,                                      !- Month
  SummerDesignDay,                        !- Day Type
  0,                                      !- Daylight Saving Time Indicator
  Wetbulb,                                !- Humidity Indicating Type
  ,                                       !- Humidity Indicating Day Schedule Name
  DefaultMultipliers,                     !- Dry-Bulb Temperature Range Modifier Type
  ,                                       !- Dry-Bulb Temperature Range Modifier Schedule Name
  ASHRAETau,                              !- Solar Model Indicator
  ,                                       !- Beam Solar Day Schedule Name
  ,                                       !- Diffuse Solar Day Schedule Name
  0.387,                                  !- ASHRAE Taub {dimensionless}
  2.315;                                  !- ASHRAE Taud {dimensionless}

OS:SizingPeriod:DesignDay,
  {ea782ac0-84b3-45f8-8184-c4565b7a9cc2}, !- Handle
  BURBANK-GLENDALE-PASSADE OCT Clg 0.4% Condns DB=>MCWB, !- Name
  35,                                     !- Maximum Dry-Bulb Temperature {C}
  14.4,                                   !- Daily Dry-Bulb Temperature Range {deltaC}
  16.6,                                   !- Humidity Indicating Conditions at Maximum Dry-Bulb
  98651,                                  !- Barometric Pressure {Pa}
  3.3,                                    !- Wind Speed {m/s}
  180,                                    !- Wind Direction {deg}
  0,                                      !- Sky Clearness
  0,                                      !- Rain Indicator
  0,                                      !- Snow Indicator
  21,                                     !- Day of Month
  10,                                     !- Month
  SummerDesignDay,                        !- Day Type
  0,                                      !- Daylight Saving Time Indicator
  Wetbulb,                                !- Humidity Indicating Type
  ,                                       !- Humidity Indicating Day Schedule Name
  DefaultMultipliers,                     !- Dry-Bulb Temperature Range Modifier Type
  ,                                       !- Dry-Bulb Temperature Range Modifier Schedule Name
  ASHRAETau,                              !- Solar Model Indicator
  ,                                       !- Beam Solar Day Schedule Name
  ,                                       !- Diffuse Solar Day Schedule Name
  0.374,                                  !- ASHRAE Taub {dimensionless}
  2.277;                                  !- ASHRAE Taud {dimensionless}

OS:SizingPeriod:DesignDay,
  {cea22981-0e08-4177-89a6-d8ea88c2e1f4}, !- Handle
  BURBANK-GLENDALE-PASSADE NOV Clg 0.4% Condns DB=>MCWB, !- Name
  31.2,                                   !- Maximum Dry-Bulb Temperature {C}
  10.8,                                   !- Daily Dry-Bulb Temperature Range {deltaC}
  14.4,                                   !- Humidity Indicating Conditions at Maximum Dry-Bulb
  98651,                                  !- Barometric Pressure {Pa}
  1.6,                                    !- Wind Speed {m/s}
  270,                                    !- Wind Direction {deg}
  0,                                      !- Sky Clearness
  0,                                      !- Rain Indicator
  0,                                      !- Snow Indicator
  21,                                     !- Day of Month
  11,                                     !- Month
  SummerDesignDay,                        !- Day Type
  0,                                      !- Daylight Saving Time Indicator
  Wetbulb,                                !- Humidity Indicating Type
  ,                                       !- Humidity Indicating Day Schedule Name
  DefaultMultipliers,                     !- Dry-Bulb Temperature Range Modifier Type
  ,                                       !- Dry-Bulb Temperature Range Modifier Schedule Name
  ASHRAETau,                              !- Solar Model Indicator
  ,                                       !- Beam Solar Day Schedule Name
  ,                                       !- Diffuse Solar Day Schedule Name
  0.331,                                  !- ASHRAE Taub {dimensionless}
  2.492;                                  !- ASHRAE Taud {dimensionless}

OS:WeatherFile,
  {c676b34b-ebb0-4b33-82ce-8d2c88c4ac9f}, !- Handle
  BURBANK-GLENDALE-PASADEN,               !- City
  -,                                      !- State Province Region
  USA,                                    !- Country
  Custom-722880,                          !- Data Source
  722880,                                 !- WMO Number
  34.2,                                   !- Latitude {deg}
  -118.35,                                !- Longitude {deg}
  -8,                                     !- Time Zone {hr}
  226,                                    !- Elevation {m}
  file:///C:/Users/mnakajima/Documents/CBECC-Com 2019 Data/EPW/BURBANK-GLENDALE_722880_CZ2010.epw, !- Url
  615EA5AE;                               !- Checksum

OS:Sizing:Parameters,
  {3b0f2ffb-9015-4c0d-87ca-f314e0b05724}, !- Handle
  1,                                      !- Heating Sizing Factor
  1;                                      !- Cooling Sizing Factor

OS:Material,
  {cf33b502-ba97-4335-a994-abcaff3c1dae}, !- Handle
  Gypsum Board - 1/2 in.,                 !- Name
  Smooth,                                 !- Roughness
  0.0127,                                 !- Thickness {m}
  0.158656446866265,                      !- Conductivity {W/m-K}
  640.738534958406,                       !- Density {kg/m3}
  1130.436,                               !- Specific Heat {J/kg-K}
  0.9,                                    !- Thermal Absorptance
  0.7,                                    !- Solar Absorptance
  0.8;                                    !- Visible Absorptance

OS:Material,
  {bf9259fe-b302-406e-9bf4-45ec317d0115}, !- Handle
  Gypsum Board - 5/8 in.,                 !- Name
  MediumRough,                            !- Roughness
  0.016002,                               !- Thickness {m}
  0.158656446866265,                      !- Conductivity {W/m-K}
  640.738534958406,                       !- Density {kg/m3}
  1130.436,                               !- Specific Heat {J/kg-K}
  0.9,                                    !- Thermal Absorptance
  0.7,                                    !- Solar Absorptance
  0.8;                                    !- Visible Absorptance

OS:Material,
  {64c1fd93-5dae-4072-a6fc-ee6f8f00b462}, !- Handle
  Stucco - 7/8 in.,                       !- Name
  MediumRough,                            !- Roughness
  0.022352,                               !- Thickness {m}
  0.700947539880412,                      !- Conductivity {W/m-K}
  1855.09824333832,                       !- Density {kg/m3}
  837.36,                                 !- Specific Heat {J/kg-K}
  0.9,                                    !- Thermal Absorptance
  0.7,                                    !- Solar Absorptance
  0.8;                                    !- Visible Absorptance

OS:Material,
  {3533cf66-50c0-4d07-95b5-cb08eb79b8ed}, !- Handle
  Carpet - 3/4 in.,                       !- Name
  Smooth,                                 !- Roughness
  0.01905,                                !- Thickness {m}
  0.0455183217255675,                     !- Conductivity {W/m-K}
  288.332340731283,                       !- Density {kg/m3}
  1381.644,                               !- Specific Heat {J/kg-K}
  0.9,                                    !- Thermal Absorptance
  0.7,                                    !- Solar Absorptance
  0.8;                                    !- Visible Absorptance

OS:Material,
  {9830104c-0a49-4ebb-a878-adcc52155079}, !- Handle
  Plywood - 5/8 in.,                      !- Name
  Smooth,                                 !- Roughness
  0.016002,                               !- Thickness {m}
  0.115440002246971,                      !- Conductivity {W/m-K}
  480.553901218804,                       !- Density {kg/m3}
  1884.06;                                !- Specific Heat {J/kg-K}

OS:Material,
  {d347413b-a7dc-42a6-81cc-c274d814ae3d}, !- Handle
  Concrete - 140 lb/ft3 - 4 in.,          !- Name
  Smooth,                                 !- Roughness
  0.1016,                                 !- Thickness {m}
  1.95140333633374,                       !- Conductivity {W/m-K}
  2239.06081041215,                       !- Density {kg/m3}
  921.096;                                !- Specific Heat {J/kg-K}

OS:Material,
  {341e82a2-f9cd-4131-9a49-d26798f1f0d5}, !- Handle
  Compliance Insulation R0.20,            !- Name
  Smooth,                                 !- Roughness
  0.000810768,                            !- Thickness {m}
  0.0230187710627394,                     !- Conductivity {W/m-K}
  16.0184633739601,                       !- Density {kg/m3}
  1130.436;                               !- Specific Heat {J/kg-K}

OS:Material,
  {00142fb2-9fbe-4c5f-85f3-a6d5fe6f5ad9}, !- Handle
  Concrete - Solid Grout - 115 lb/ft3 - 8 in., !- Name
  Smooth,                                 !- Roughness
  0.2032,                                 !- Thickness {m}
  1.31570449337553,                       !- Conductivity {W/m-K}
  1858.14175137938,                       !- Density {kg/m3}
  837.36;                                 !- Specific Heat {J/kg-K}

OS:Material,
  {5838de3a-0cd1-406a-9197-88e3756631b7}, !- Handle
  Compliance Insulation R13.99,           !- Name
  Smooth,                                 !- Roughness
  0.05671312,                             !- Thickness {m}
  0.0230187710627394,                     !- Conductivity {W/m-K}
  16.0184633739601,                       !- Density {kg/m3}
  1130.436;                               !- Specific Heat {J/kg-K}

OS:Material,
  {04829158-c8cc-42e6-995f-8393c08b143e}, !- Handle
  Air - Metal Wall Framing - 16 or 24 in. OC, !- Name
  Smooth,                                 !- Roughness
  0.1397,                                 !- Thickness {m}
  1.22016793979183,                       !- Conductivity {W/m-K}
  1.28147706991681,                       !- Density {kg/m3}
  1004.832;                               !- Specific Heat {J/kg-K}

OS:Material,
  {ec815dfa-545f-45f6-9399-2218ad8ee635}, !- Handle
  Compliance Insulation R10.06,           !- Name
  Smooth,                                 !- Roughness
  0.040781732,                            !- Thickness {m}
  0.0230187710627394,                     !- Conductivity {W/m-K}
  16.0184633739601,                       !- Density {kg/m3}
  1130.436;                               !- Specific Heat {J/kg-K}

OS:Material,
  {71f8378b-232e-410d-be69-2151bbdd9d1f}, !- Handle
  Compliance Insulation R2.00,            !- Name
  Smooth,                                 !- Roughness
  0.00810768,                             !- Thickness {m}
  0.0230187710627394,                     !- Conductivity {W/m-K}
  16.0184633739601,                       !- Density {kg/m3}
  1130.436;                               !- Specific Heat {J/kg-K}

OS:Material,
  {1e8de8f5-4f97-47d0-a8de-5fc3cc33b374}, !- Handle
  Compliance Insulation R0.10,            !- Name
  Smooth,                                 !- Roughness
  0.000405384,                            !- Thickness {m}
  0.0230187710627394,                     !- Conductivity {W/m-K}
  16.0184633739601,                       !- Density {kg/m3}
  1130.436;                               !- Specific Heat {J/kg-K}

OS:Material,
  {c3928ecb-2373-49cd-8520-ac325d6c542f}, !- Handle
  Metal Standing Seam - 1/16 in.,         !- Name
  MediumRough,                            !- Roughness
  0.0015875,                              !- Thickness {m}
  2.21534037295537,                       !- Conductivity {W/m-K}
  7820.53418843482,                       !- Density {kg/m3}
  502.416,                                !- Specific Heat {J/kg-K}
  0.85,                                   !- Thermal Absorptance
  0.37,                                   !- Solar Absorptance
  0.85;                                   !- Visible Absorptance

OS:Material,
  {34ae8a11-4453-48e5-8aa2-8ae4f51c02cc}, !- Handle
  Compliance Insulation R34.93,           !- Name
  Smooth,                                 !- Roughness
  0.141600682,                            !- Thickness {m}
  0.0230187710627394,                     !- Conductivity {W/m-K}
  16.0184633739601,                       !- Density {kg/m3}
  1130.436,                               !- Specific Heat {J/kg-K}
  0.9,                                    !- Thermal Absorptance
  0.7,                                    !- Solar Absorptance
  0.8;                                    !- Visible Absorptance

OS:Material,
  {1d4cd49a-ff6f-4f35-b9be-5d4846a210bc}, !- Handle
  Compliance Insulation R28.63,           !- Name
  Smooth,                                 !- Roughness
  0.11606149,                             !- Thickness {m}
  0.0230187710627394,                     !- Conductivity {W/m-K}
  16.0184633739601,                       !- Density {kg/m3}
  1130.436,                               !- Specific Heat {J/kg-K}
  0.9,                                    !- Thermal Absorptance
  0.7,                                    !- Solar Absorptance
  0.8;                                    !- Visible Absorptance

OS:Material,
  {6f4a16a3-322e-48b2-af69-8574baa26991}, !- Handle
  Compliance Insulation R9.83,            !- Name
  MediumRough,                            !- Roughness
  0.03986911,                             !- Thickness {m}
  0.0230187710627394,                     !- Conductivity {W/m-K}
  16.0184633739601,                       !- Density {kg/m3}
  1130.436,                               !- Specific Heat {J/kg-K}
  0.9,                                    !- Thermal Absorptance
  0.7,                                    !- Solar Absorptance
  0.8;                                    !- Visible Absorptance

OS:Material,
  {1e3cc0ae-b454-4b63-95ab-6526a41f9246}, !- Handle
  Metal Deck - 1/16 in.,                  !- Name
  MediumRough,                            !- Roughness
  0.0015875,                              !- Thickness {m}
  45.3452482589303,                       !- Conductivity {W/m-K}
  7820.53418843482,                       !- Density {kg/m3}
  502.416,                                !- Specific Heat {J/kg-K}
  0.9,                                    !- Thermal Absorptance
  0.7,                                    !- Solar Absorptance
  0.8;                                    !- Visible Absorptance

OS:Construction,
  {c7bbd63e-89b5-49f2-b493-a23bb4516158}, !- Handle
  MetalFrameWallU062,                     !- Name
  ,                                       !- Surface Rendering Name
  {64c1fd93-5dae-4072-a6fc-ee6f8f00b462}, !- Layer 1
  {5838de3a-0cd1-406a-9197-88e3756631b7}, !- Layer 2
  {04829158-c8cc-42e6-995f-8393c08b143e}, !- Layer 3
  {cf33b502-ba97-4335-a994-abcaff3c1dae}; !- Layer 4

OS:Construction,
  {3c255460-bbb2-45ed-b856-0db6a4db6c36}, !- Handle
  MetalFrameWallU069,                     !- Name
  ,                                       !- Surface Rendering Name
  {e47a492f-0ac0-43ff-82e4-d65a58440d29}, !- Layer 1
  {ec815dfa-545f-45f6-9399-2218ad8ee635}, !- Layer 2
  {71f8378b-232e-410d-be69-2151bbdd9d1f}, !- Layer 3
  {341e82a2-f9cd-4131-9a49-d26798f1f0d5}, !- Layer 4
  {1e8de8f5-4f97-47d0-a8de-5fc3cc33b374}, !- Layer 5
  {731a43de-b086-4797-97fc-be1823578d55}, !- Layer 6
  {eee850d9-aeb2-4c25-9b78-5ef09e2a630e}; !- Layer 7

OS:Material,
  {e47a492f-0ac0-43ff-82e4-d65a58440d29}, !- Handle
  Stucco - 7/8 in. 1,                     !- Name
  MediumRough,                            !- Roughness
  0.022352,                               !- Thickness {m}
  0.700947539880412,                      !- Conductivity {W/m-K}
  1855.09824333832,                       !- Density {kg/m3}
  837.36,                                 !- Specific Heat {J/kg-K}
  0.9,                                    !- Thermal Absorptance
  0.7,                                    !- Solar Absorptance
  0.8;                                    !- Visible Absorptance

OS:Material,
  {731a43de-b086-4797-97fc-be1823578d55}, !- Handle
  Air - Metal Wall Framing - 16 or 24 in. OC 1, !- Name
  Smooth,                                 !- Roughness
  0.1397,                                 !- Thickness {m}
  1.22016793979183,                       !- Conductivity {W/m-K}
  1.28147706991681,                       !- Density {kg/m3}
  1004.832;                               !- Specific Heat {J/kg-K}

OS:Material,