
OS:Version,
  {3e3a7a7d-659a-44c7-bc76-9ac7296c69fe}, !- Handle
  2.7.2;                                  !- Version Identifier

OS:SimulationControl,
  {caa94d5e-7529-45f4-bc5e-dac1869873f3}, !- Handle
  ,                                       !- Do Zone Sizing Calculation
  ,                                       !- Do System Sizing Calculation
  ,                                       !- Do Plant Sizing Calculation
  No,                                     !- Run Simulation for Sizing Periods
  Yes,                                    !- Run Simulation for Weather File Run Periods
  ,                                       !- Loads Convergence Tolerance Value
  ,                                       !- Temperature Convergence Tolerance Value {deltaC}
  FullExterior,                           !- Solar Distribution
  50;                                     !- Maximum Number of Warmup Days

OS:YearDescription,
  {c3533808-b627-41b1-aa87-e09f005c2237}, !- Handle
  2009,                                   !- Calendar Year
  ,                                       !- Day of Week for Start Day
  ;                                       !- Is Leap Year

OS:RunPeriod,
  {150eea03-92c0-4105-876e-0bbdfb914c80}, !- Handle
  CTZ12S22A,                              !- Name
  1,                                      !- Begin Month
  1,                                      !- Begin Day of Month
  12,                                     !- End Month
  31,                                     !- End Day of Month
  No,                                     !- Use Weather File Holidays and Special Days
  No,                                     !- Use Weather File Daylight Saving Period
  Yes,                                    !- Apply Weekend Holiday Rule
  ,                                       !- Use Weather File Rain Indicators
  ,                                       !- Use Weather File Snow Indicators
  ;                                       !- Number of Times Runperiod to be Repeated

OS:Site,
  {baeae58a-f200-455d-a5b3-8da7f02dc66d}, !- Handle
  CA_SACRAMENTO-EXECUTIVE-_USA Design_Conditions, !- Name
  38.51,                                  !- Latitude {deg}
  -121.5,                                 !- Longitude {deg}
  -8,                                     !- Time Zone {hr}
  7.0104,                                 !- Elevation {m}
  ;                                       !- Terrain

OS:SizingPeriod:DesignDay,
  {b33137ed-2c53-48d9-958b-7a6503ec8b66}, !- Handle
  CA_SACRAMENTO-EXECUTIVE- Ann Htg 99.6% Condns DB, !- Name
  -0.6,                                   !- Maximum Dry-Bulb Temperature {C}
  0,                                      !- Daily Dry-Bulb Temperature Range {deltaC}
  -0.6,                                   !- Humidity Indicating Conditions at Maximum Dry-Bulb
  101241,                                 !- Barometric Pressure {Pa}
  0.7,                                    !- Wind Speed {m/s}
  330,                                    !- Wind Direction {deg}
  0,                                      !- Sky Clearness
  0,                                      !- Rain Indicator
  0,                                      !- Snow Indicator
  21,                                     !- Day of Month
  12,                                     !- Month
  WinterDesignDay,                        !- Day Type
  0,                                      !- Daylight Saving Time Indicator
  Wetbulb,                                !- Humidity Indicating Type
  ,                                       !- Humidity Indicating Day Schedule Name
  DefaultMultipliers,                     !- Dry-Bulb Temperature Range Modifier Type
  ,                                       !- Dry-Bulb Temperature Range Modifier Schedule Name
  ASHRAEClearSky;                         !- Solar Model Indicator

OS:SizingPeriod:DesignDay,
  {dd5f963b-d749-4c24-9bbf-9fbd53a4e6db}, !- Handle
  CA_SACRAMENTO-EXECUTIVE- Ann Clg .4% Condns DB=>MWB, !- Name
  37.8,                                   !- Maximum Dry-Bulb Temperature {C}
  17.8,                                   !- Daily Dry-Bulb Temperature Range {deltaC}
  21,                                     !- Humidity Indicating Conditions at Maximum Dry-Bulb
  101241,                                 !- Barometric Pressure {Pa}
  3.2,                                    !- Wind Speed {m/s}
  200,                                    !- Wind Direction {deg}
  0,                                      !- Sky Clearness
  0,                                      !- Rain Indicator
  0,                                      !- Snow Indicator
  21,                                     !- Day of Month
  7,                                      !- Month
  SummerDesignDay,                        !- Day Type
  0,                                      !- Daylight Saving Time Indicator
  Wetbulb,                                !- Humidity Indicating Type
  ,                                       !- Humidity Indicating Day Schedule Name
  DefaultMultipliers,                     !- Dry-Bulb Temperature Range Modifier Type
  ,                                       !- Dry-Bulb Temperature Range Modifier Schedule Name
  ASHRAETau,                              !- Solar Model Indicator
  ,                                       !- Beam Solar Day Schedule Name
  ,                                       !- Diffuse Solar Day Schedule Name
  0.363,                                  !- ASHRAE Taub {dimensionless}
  2.407;                                  !- ASHRAE Taud {dimensionless}

OS:SizingPeriod:DesignDay,
  {3a5f8b28-4e07-428a-bd0a-a77706b88767}, !- Handle
  CA_SACRAMENTO-EXECUTIVE- Ann Clg .4% Condns WB=>MDB, !- Name
  35.3,                                   !- Maximum Dry-Bulb Temperature {C}
  17.8,                                   !- Daily Dry-Bulb Temperature Range {deltaC}
  22.4,                                   !- Humidity Indicating Conditions at Maximum Dry-Bulb
  101241,                                 !- Barometric Pressure {Pa}
  3.2,                                    !- Wind Speed {m/s}
  200,                                    !- Wind Direction {deg}
  0,                                      !- Sky Clearness
  0,                                      !- Rain Indicator
  0,                                      !- Snow Indicator
  21,                                     !- Day of Month
  7,                                      !- Month
  SummerDesignDay,                        !- Day Type
  0,                                      !- Daylight Saving Time Indicator
  Wetbulb,                                !- Humidity Indicating Type
  ,                                       !- Humidity Indicating Day Schedule Name
  DefaultMultipliers,                     !- Dry-Bulb Temperature Range Modifier Type
  ,                                       !- Dry-Bulb Temperature Range Modifier Schedule Name
  ASHRAETau,                              !- Solar Model Indicator
  ,                                       !- Beam Solar Day Schedule Name
  ,                                       !- Diffuse Solar Day Schedule Name
  0.363,                                  !- ASHRAE Taub {dimensionless}
  2.407;                                  !- ASHRAE Taud {dimensionless}

OS:SizingPeriod:DesignDay,
  {d49db0d1-af4e-4fce-9aaa-e15143ac836c}, !- Handle
  CA_SACRAMENTO-EXECUTIVE- Ann Clg .4% Condns DP=>MDB, !- Name
  28.6,                                   !- Maximum Dry-Bulb Temperature {C}
  17.8,                                   !- Daily Dry-Bulb Temperature Range {deltaC}
  17.5,                                   !- Humidity Indicating Conditions at Maximum Dry-Bulb
  101241,                                 !- Barometric Pressure {Pa}
  3.2,                                    !- Wind Speed {m/s}
  200,                                    !- Wind Direction {deg}
  0,                                      !- Sky Clearness
  0,                                      !- Rain Indicator
  0,                                      !- Snow Indicator
  21,                                     !- Day of Month
  7,                                      !- Month
  SummerDesignDay,                        !- Day Type
  0,                                      !- Daylight Saving Time Indicator
  Dewpoint,                               !- Humidity Indicating Type
  ,                                       !- Humidity Indicating Day Schedule Name
  DefaultMultipliers,                     !- Dry-Bulb Temperature Range Modifier Type
  ,                                       !- Dry-Bulb Temperature Range Modifier Schedule Name
  ASHRAETau,                              !- Solar Model Indicator
  ,                                       !- Beam Solar Day Schedule Name
  ,                                       !- Diffuse Solar Day Schedule Name
  0.363,                                  !- ASHRAE Taub {dimensionless}
  2.407;                                  !- ASHRAE Taud {dimensionless}

OS:SizingPeriod:DesignDay,
  {b56613ed-885b-4e00-ad51-ae72588c8b0b}, !- Handle
  CA_SACRAMENTO-EXECUTIVE- June .4% Condns DB=>MCWB, !- Name
  39,                                     !- Maximum Dry-Bulb Temperature {C}
  16.4,                                   !- Daily Dry-Bulb Temperature Range {deltaC}
  21.3,                                   !- Humidity Indicating Conditions at Maximum Dry-Bulb
  101241,                                 !- Barometric Pressure {Pa}
  3.5,                                    !- Wind Speed {m/s}
  200,                                    !- Wind Direction {deg}
  0,                                      !- Sky Clearness
  0,                                      !- Rain Indicator
  0,                                      !- Snow Indicator
  21,                                     !- Day of Month
  6,                                      !- Month
  SummerDesignDay,                        !- Day Type
  0,                                      !- Daylight Saving Time Indicator
  Wetbulb,                                !- Humidity Indicating Type
  ,                                       !- Humidity Indicating Day Schedule Name
  DefaultMultipliers,                     !- Dry-Bulb Temperature Range Modifier Type
  ,                                       !- Dry-Bulb Temperature Range Modifier Schedule Name
  ASHRAETau,                              !- Solar Model Indicator
  ,                                       !- Beam Solar Day Schedule Name
  ,                                       !- Diffuse Solar Day Schedule Name
  0.362,                                  !- ASHRAE Taub {dimensionless}
  2.413;                                  !- ASHRAE Taud {dimensionless}

OS:SizingPeriod:DesignDay,
  {fc417a86-39a1-47ef-8ea9-f6a55a636bf6}, !- Handle
  CA_SACRAMENTO-EXECUTIVE- July .4% Condns DB=>MCWB, !- Name
  40.5,                                   !- Maximum Dry-Bulb Temperature {C}
  17.8,                                   !- Daily Dry-Bulb Temperature Range {deltaC}
  22.5,                                   !- Humidity Indicating Conditions at Maximum Dry-Bulb
  101241,                                 !- Barometric Pressure {Pa}
  3.3,                                    !- Wind Speed {m/s}
  200,                                    !- Wind Direction {deg}
  0,                                      !- Sky Clearness
  0,                                      !- Rain Indicator
  0,                                      !- Snow Indicator
  21,                                     !- Day of Month
  7,                                      !- Month
  SummerDesignDay,                        !- Day Type
  0,                                      !- Daylight Saving Time Indicator
  Wetbulb,                                !- Humidity Indicating Type
  ,                                       !- Humidity Indicating Day Schedule Name
  DefaultMultipliers,                     !- Dry-Bulb Temperature Range Modifier Type
  ,                                       !- Dry-Bulb Temperature Range Modifier Schedule Name
  ASHRAETau,                              !- Solar Model Indicator
  ,                                       !- Beam Solar Day Schedule Name
  ,                                       !- Diffuse Solar Day Schedule Name
  0.363,                                  !- ASHRAE Taub {dimensionless}
  2.407;                                  !- ASHRAE Taud {dimensionless}

OS:SizingPeriod:DesignDay,
  {aba15496-4dd9-4edd-a446-fa72cd075129}, !- Handle
  CA_SACRAMENTO-EXECUTIVE- August .4% Condns DB=>MCWB, !- Name
  40.3,                                   !- Maximum Dry-Bulb Temperature {C}
  17.6,                                   !- Daily Dry-Bulb Temperature Range {deltaC}
  21.7,                                   !- Humidity Indicating Conditions at Maximum Dry-Bulb
  101241,                                 !- Barometric Pressure {Pa}
  3.1,                                    !- Wind Speed {m/s}
  200,                                    !- Wind Direction {deg}
  0,                                      !- Sky Clearness
  0,                                      !- Rain Indicator
  0,                                      !- Snow Indicator
  21,                                     !- Day of Month
  8,                                      !- Month
  SummerDesignDay,                        !- Day Type
  0,                                      !- Daylight Saving Time Indicator
  Wetbulb,                                !- Humidity Indicating Type
  ,                                       !- Humidity Indicating Day Schedule Name
  DefaultMultipliers,                     !- Dry-Bulb Temperature Range Modifier Type
  ,                                       !- Dry-Bulb Temperature Range Modifier Schedule Name
  ASHRAETau,                              !- Solar Model Indicator
  ,                                       !- Beam Solar Day Schedule Name
  ,                                       !- Diffuse Solar Day Schedule Name
  0.347,                                  !- ASHRAE Taub {dimensionless}
  2.442;                                  !- ASHRAE Taud {dimensionless}

OS:SizingPeriod:DesignDay,
  {4b74afb7-93f8-485c-8ead-8220f570a8af}, !- Handle
  CA_SACRAMENTO-EXECUTIVE- September .4% Condns DB=>MCWB, !- Name
  37.7,                                   !- Maximum Dry-Bulb Temperature {C}
  17.1,                                   !- Daily Dry-Bulb Temperature Range {deltaC}
  19.8,                                   !- Humidity Indicating Conditions at Maximum Dry-Bulb
  101241,                                 !- Barometric Pressure {Pa}
  2.6,                                    !- Wind Speed {m/s}
  200,                                    !- Wind Direction {deg}
  0,                                      !- Sky Clearness
  0,                                      !- Rain Indicator
  0,                                      !- Snow Indicator
  21,                                     !- Day of Month
  9,                                      !- Month
  SummerDesignDay,                        !- Day Type
  0,                                      !- Daylight Saving Time Indicator
  Wetbulb,                                !- Humidity Indicating Type
  ,                                       !- Humidity Indicating Day Schedule Name
  DefaultMultipliers,                     !- Dry-Bulb Temperature Range Modifier Type
  ,                                       !- Dry-Bulb Temperature Range Modifier Schedule Name
  ASHRAETau,                              !- Solar Model Indicator
  ,                                       !- Beam Solar Day Schedule Name
  ,                                       !- Diffuse Solar Day Schedule Name
  0.351,                                  !- ASHRAE Taub {dimensionless}
  2.437;                                  !- ASHRAE Taud {dimensionless}

OS:SizingPeriod:DesignDay,
  {8a0a6199-c65c-46d5-83ce-aecb3e8229d4}, !- Handle
  CA_SACRAMENTO-EXECUTIVE- October .4% Condns DB=>MCWB, !- Name
  34.4,                                   !- Maximum Dry-Bulb Temperature {C}
  14.6,                                   !- Daily Dry-Bulb Temperature Range {deltaC}
  18.3,                                   !- Humidity Indicating Conditions at Maximum Dry-Bulb
  101241,                                 !- Barometric Pressure {Pa}
  2.4,                                    !- Wind Speed {m/s}
  200,                                    !- Wind Direction {deg}
  0,                                      !- Sky Clearness
  0,                                      !- Rain Indicator
  0,                                      !- Snow Indicator
  21,                                     !- Day of Month
  10,                                     !- Month
  SummerDesignDay,                        !- Day Type
  0,                                      !- Daylight Saving Time Indicator
  Wetbulb,                                !- Humidity Indicating Type
  ,                                       !- Humidity Indicating Day Schedule Name
  DefaultMultipliers,                     !- Dry-Bulb Temperature Range Modifier Type
  ,                                       !- Dry-Bulb Temperature Range Modifier Schedule Name
  ASHRAETau,                              !- Solar Model Indicator
  ,                                       !- Beam Solar Day Schedule Name
  ,                                       !- Diffuse Solar Day Schedule Name
  0.345,                                  !- ASHRAE Taub {dimensionless}
  2.463;                                  !- ASHRAE Taud {dimensionless}

OS:SizingPeriod:DesignDay,
  {53d47aec-d7c5-4b6c-ab4f-0825647b8ca2}, !- Handle
  CA_SACRAMENTO-EXECUTIVE- November .4% Condns DB=>MCWB, !- Name
  25.2,                                   !- Maximum Dry-Bulb Temperature {C}
  11.4,                                   !- Daily Dry-Bulb Temperature Range {deltaC}
  15.5,                                   !- Humidity Indicating Conditions at Maximum Dry-Bulb
  101241,                                 !- Barometric Pressure {Pa}
  2.1,                                    !- Wind Speed {m/s}
  200,                                    !- Wind Direction {deg}
  0,                                      !- Sky Clearness
  0,                                      !- Rain Indicator
  0,                                      !- Snow Indicator
  21,                                     !- Day of Month
  11,                                     !- Month
  SummerDesignDay,                        !- Day Type
  0,                                      !- Daylight Saving Time Indicator
  Wetbulb,                                !- Humidity Indicating Type
  ,                                       !- Humidity Indicating Day Schedule Name
  DefaultMultipliers,                     !- Dry-Bulb Temperature Range Modifier Type
  ,                                       !- Dry-Bulb Temperature Range Modifier Schedule Name
  ASHRAETau,                              !- Solar Model Indicator
  ,                                       !- Beam Solar Day Schedule Name
  ,                                       !- Diffuse Solar Day Schedule Name
  0.331,                                  !- ASHRAE Taub {dimensionless}
  2.486;                                  !- ASHRAE Taud {dimensionless}

OS:WeatherFile,
  {eb30958a-3914-436f-9d3f-826ff3bf1638}, !- Handle
  CA_SACRAMENTO-EXECUTIVE-,               !- City
  -,                                      !- State Province Region
  USA,                                    !- Country
  Custom-724830,                          !- Data Source
  724830,                                 !- WMO Number
  38.51,                                  !- Latitude {deg}
  -121.5,                                 !- Longitude {deg}
  -8,                                     !- Time Zone {hr}
  7,                                      !- Elevation {m}
  file:///C:/Users/mnakajima/Documents/CBECC-Com 2022 Data/EPW/CTZ12S22A.epw, !- Url
  CE4243FA;                               !- Checksum

OS:Sizing:Parameters,
  {341e80f5-9816-4939-ad54-f20c050783f3}, !- Handle
  1,                                      !- Heating Sizing Factor
  1;                                      !- Cooling Sizing Factor

OS:Material,
  {d5b67693-2ea3-4d1c-a316-b00ffe41608a}, !- Handle
  Gypsum Board - 1/2 in.,                 !- Name
  Smooth,                                 !- Roughness
  0.0127,                                 !- Thickness {m}
  0.158656446866265,                      !- Conductivity {W/m-K}
  640.738534958406,                       !- Density {kg/m3}
  1130.436,                               !- Specific Heat {J/kg-K}
  0.9,                                    !- Thermal Absorptance
  0.7,                                    !- Solar Absorptance
  0.8;                                    !- Visible Absorptance

OS:Material,
  {dc7a2f48-c85c-46d6-bce4-d680b6208df8}, !- Handle
  Gypsum Board - 5/8 in.,                 !- Name
  MediumRough,                            !- Roughness
  0.016002,                               !- Thickness {m}
  0.158656446866265,                      !- Conductivity {W/m-K}
  640.738534958406,                       !- Density {kg/m3}
  1130.436,                               !- Specific Heat {J/kg-K}
  0.9,                                    !- Thermal Absorptance
  0.7,                                    !- Solar Absorptance
  0.8;                                    !- Visible Absorptance

OS:Material,
  {48842b4b-7d23-4934-8c61-4baaba356efb}, !- Handle
  Stucco - 7/8 in.,                       !- Name
  MediumRough,                            !- Roughness
  0.022352,                               !- Thickness {m}
  0.700947539880412,                      !- Conductivity {W/m-K}
  1855.09824333832,                       !- Density {kg/m3}
  837.36,                                 !- Specific Heat {J/kg-K}
  0.9,                                    !- Thermal Absorptance
  0.7,                                    !- Solar Absorptance
  0.8;                                    !- Visible Absorptance

OS:Material,
  {878e796f-b839-4ef2-ad0e-26c940e6b52c}, !- Handle
  Carpet - 3/4 in.,                       !- Name
  Smooth,                                 !- Roughness
  0.01905,                                !- Thickness {m}
  0.0455183217255675,                     !- Conductivity {W/m-K}
  288.332340731283,                       !- Density {kg/m3}
  1381.644,                               !- Specific Heat {J/kg-K}
  0.9,                                    !- Thermal Absorptance
  0.7,                                    !- Solar Absorptance
  0.8;                                    !- Visible Absorptance

OS:Material,
  {844fcc0b-4025-4d01-a4c1-9ee952ed3e7d}, !- Handle
  Plywood - 5/8 in.,                      !- Name
  Smooth,                                 !- Roughness
  0.016002,                               !- Thickness {m}
  0.115440002246971,                      !- Conductivity {W/m-K}
  480.553901218804,                       !- Density {kg/m3}
  1884.06;                                !- Specific Heat {J/kg-K}

OS:Material,
  {12c0f057-cbee-4b13-a83b-4fc1495b414c}, !- Handle
  Concrete - 140 lb/ft3 - 4 in.,          !- Name
  Smooth,                                 !- Roughness
  0.1016,                                 !- Thickness {m}
  1.95140333633374,                       !- Conductivity {W/m-K}
  2239.06081041215,                       !- Density {kg/m3}
  921.096;                                !- Specific Heat {J/kg-K}

OS:Material,
  {2e1e5cb0-68e1-496c-a809-203a1189981d}, !- Handle
  Compliance Insulation R0.20,            !- Name
  Smooth,                                 !- Roughness
  0.000810768,                            !- Thickness {m}
  0.0230187710627394,                     !- Conductivity {W/m-K}
  16.0184633739601,                       !- Density {kg/m3}
  1130.436;                               !- Specific Heat {J/kg-K}

OS:Material,
  {eb7e04ad-7e79-41f7-b47b-574fba18f868}, !- Handle
  Concrete - Solid Grout - 115 lb/ft3 - 8 in., !- Name
  Smooth,                                 !- Roughness
  0.2032,                                 !- Thickness {m}
  1.31570449337553,                       !- Conductivity {W/m-K}
  1858.14175137938,                       !- Density {kg/m3}
  837.36;                                 !- Specific Heat {J/kg-K}

OS:Material,
  {ae32ff12-b302-4852-9743-78e7b301d6ee}, !- Handle
  Compliance Insulation R13.99,           !- Name
  Smooth,                                 !- Roughness
  0.05671312,                             !- Thickness {m}
  0.0230187710627394,                     !- Conductivity {W/m-K}
  16.0184633739601,                       !- Density {kg/m3}
  1130.436;                               !- Specific Heat {J/kg-K}

OS:Material,
  {41829df9-a871-4455-8c09-be6f0a246167}, !- Handle
  Air - Metal Wall Framing - 16 or 24 in. OC, !- Name
  Smooth,                                 !- Roughness
  0.1397,                                 !- Thickness {m}
  1.22016793979183,                       !- Conductivity {W/m-K}
  1.28147706991681,                       !- Density {kg/m3}
  1004.832;                               !- Specific Heat {J/kg-K}

OS:Material,
  {b2d8b05a-e9a1-4612-8dd9-4e490a5bb9bc}, !- Handle
  Compliance Insulation R10.06,           !- Name
  Smooth,                                 !- Roughness
  0.040781732,                            !- Thickness {m}
  0.0230187710627394,                     !- Conductivity {W/m-K}
  16.0184633739601,                       !- Density {kg/m3}
  1130.436;                               !- Specific Heat {J/kg-K}

OS:Material,
  {1d277994-2602-422f-815a-a2521d9d3263}, !- Handle
  Compliance Insulation R2.00,            !- Name
  Smooth,                                 !- Roughness
  0.00810768,                             !- Thickness {m}
  0.0230187710627394,                     !- Conductivity {W/m-K}
  16.0184633739601,                       !- Density {kg/m3}
  1130.436;                               !- Specific Heat {J/kg-K}

OS:Material,
  {30eb7fd6-0bec-48a6-aebf-1b265317df38}, !- Handle
  Compliance Insulation R0.10,            !- Name
  Smooth,                                 !- Roughness
  0.000405384,                            !- Thickness {m}
  0.0230187710627394,                     !- Conductivity {W/m-K}
  16.0184633739601,                       !- Density {kg/m3}
  1130.436;                               !- Specific Heat {J/kg-K}

OS:Material,
  {894a53ce-5409-41c1-95d8-0253d60067d7}, !- Handle
  Metal Standing Seam - 1/16 in.,         !- Name
  MediumRough,                            !- Roughness
  0.0015875,                              !- Thickness {m}
  2.21534037295537,                       !- Conductivity {W/m-K}
  7820.53418843482,                       !- Density {kg/m3}
  502.416,                                !- Specific Heat {J/kg-K}
  0.85,                                   !- Thermal Absorptance
  0.37,                                   !- Solar Absorptance
  0.85;                                   !- Visible Absorptance

OS:Material,
  {f60daee5-0ef0-4e20-b2b7-55e15ad24c50}, !- Handle
  Compliance Insulation R34.93,           !- Name
  Smooth,                                 !- Roughness
  0.141600682,                            !- Thickness {m}
  0.0230187710627394,                     !- Conductivity {W/m-K}
  16.0184633739601,                       !- Density {kg/m3}
  1130.436,                               !- Specific Heat {J/kg-K}
  0.9,                                    !- Thermal Absorptance
  0.7,                                    !- Solar Absorptance
  0.8;                                    !- Visible Absorptance

OS:Material,
  {1bcca98e-5c6d-4dac-9956-15b30ba11859}, !- Handle
  Compliance Insulation R28.63,           !- Name
  Smooth,                                 !- Roughness
  0.11606149,                             !- Thickness {m}
  0.0230187710627394,                     !- Conductivity {W/m-K}
  16.0184633739601,                       !- Density {kg/m3}
  1130.436,                               !- Specific Heat {J/kg-K}
  0.9,                                    !- Thermal Absorptance
  0.7,                                    !- Solar Absorptance
  0.8;                                    !- Visible Absorptance

OS:Material,
  {0f71b69e-f056-4559-ba3c-5de20b1b660e}, !- Handle
  Compliance Insulation R9.83,            !- Name
  MediumRough,                            !- Roughness
  0.03986911,                             !- Thickness {m}
  0.0230187710627394,                     !- Conductivity {W/m-K}
  16.0184633739601,                       !- Density {kg/m3}
  1130.436,                               !- Specific Heat {J/kg-K}
  0.9,                                    !- Thermal Absorptance
  0.7,                                    !- Solar Absorptance
  0.8;                                    !- Visible Absorptance

OS:Material,
  {9c7b420d-9048-4f5a-90b3-cdc59948f249}, !- Handle
  Metal Deck - 1/16 in.,                  !- Name
  MediumRough,                            !- Roughness
  0.0015875,                              !- Thickness {m}
  45.3452482589303,                       !- Conductivity {W/m-K}
  7820.53418843482,                       !- Density {kg/m3}
  502.416,                                !- Specific Heat {J/kg-K}
  0.9,                                    !- Thermal Absorptance
  0.7,                                    !- Solar Absorptance
  0.8;                                    !- Visible Absorptance

OS:Construction,
  {64300652-de05-45bf-a185-2dcb98b6c05f}, !- Handle
  MetalFrameWallU062,                     !- Name
  ,                                       !- Surface Rendering Name
  {48842b4b-7d23-4934-8c61-4baaba356efb}, !- Layer 1
  {ae32ff12-b302-4852-9743-78e7b301d6ee}, !- Layer 2
  {41829df9-a871-4455-8c09-be6f0a246167}, !- Layer 3