
OS:Version,
  {55800b0a-1c09-46e4-9e7b-bb83fb8e5aa2}, !- Handle
  2.7.2;                                  !- Version Identifier

OS:SimulationControl,
  {6e35c071-8cfd-4fb3-be4e-6f9fd9218794}, !- Handle
  ,                                       !- Do Zone Sizing Calculation
  ,                                       !- Do System Sizing Calculation
  ,                                       !- Do Plant Sizing Calculation
  No,                                     !- Run Simulation for Sizing Periods
  Yes,                                    !- Run Simulation for Weather File Run Periods
  ,                                       !- Loads Convergence Tolerance Value
  ,                                       !- Temperature Convergence Tolerance Value {deltaC}
  FullExterior,                           !- Solar Distribution
  50;                                     !- Maximum Number of Warmup Days

OS:YearDescription,
  {30a7224a-be91-4e58-9954-77cdecacd851}, !- Handle
  2009,                                   !- Calendar Year
  ,                                       !- Day of Week for Start Day
  ;                                       !- Is Leap Year

OS:RunPeriod,
  {45e1d815-1347-4b76-b4c7-cddcf254626d}, !- Handle
  CTZ16S22A,                              !- Name
  1,                                      !- Begin Month
  1,                                      !- Begin Day of Month
  12,                                     !- End Month
  31,                                     !- End Day of Month
  No,                                     !- Use Weather File Holidays and Special Days
  No,                                     !- Use Weather File Daylight Saving Period
  Yes,                                    !- Apply Weekend Holiday Rule
  ,                                       !- Use Weather File Rain Indicators
  ,                                       !- Use Weather File Snow Indicators
  ;                                       !- Number of Times Runperiod to be Repeated

OS:Site,
  {c119cc78-d7d6-4590-8d73-a1321663ed27}, !- Handle
  CA_BLUE-CANYON-AP_USA Design_Conditions, !- Name
  39.28,                                  !- Latitude {deg}
  -120.71,                                !- Longitude {deg}
  -8,                                     !- Time Zone {hr}
  1609.9536,                              !- Elevation {m}
  ;                                       !- Terrain

OS:SizingPeriod:DesignDay,
  {b31209f6-65a9-4cb7-acaa-2c9ac2730302}, !- Handle
  CA_BLUE-CANYON-AP Ann Htg 99.6% Condns DB, !- Name
  -6,                                     !- Maximum Dry-Bulb Temperature {C}
  0,                                      !- Daily Dry-Bulb Temperature Range {deltaC}
  -6,                                     !- Humidity Indicating Conditions at Maximum Dry-Bulb
  83421,                                  !- Barometric Pressure {Pa}
  2.3,                                    !- Wind Speed {m/s}
  60,                                     !- Wind Direction {deg}
  0,                                      !- Sky Clearness
  0,                                      !- Rain Indicator
  0,                                      !- Snow Indicator
  21,                                     !- Day of Month
  2,                                      !- Month
  WinterDesignDay,                        !- Day Type
  0,                                      !- Daylight Saving Time Indicator
  Wetbulb,                                !- Humidity Indicating Type
  ,                                       !- Humidity Indicating Day Schedule Name
  DefaultMultipliers,                     !- Dry-Bulb Temperature Range Modifier Type
  ,                                       !- Dry-Bulb Temperature Range Modifier Schedule Name
  ASHRAEClearSky;                         !- Solar Model Indicator

OS:SizingPeriod:DesignDay,
  {8ca5de0d-4baa-4e2b-8386-7a92146a517a}, !- Handle
  CA_BLUE-CANYON-AP Ann Clg .4% Condns DB=>MWB, !- Name
  28.6,                                   !- Maximum Dry-Bulb Temperature {C}
  7.3,                                    !- Daily Dry-Bulb Temperature Range {deltaC}
  14.9,                                   !- Humidity Indicating Conditions at Maximum Dry-Bulb
  83421,                                  !- Barometric Pressure {Pa}
  2.8,                                    !- Wind Speed {m/s}
  280,                                    !- Wind Direction {deg}
  0,                                      !- Sky Clearness
  0,                                      !- Rain Indicator
  0,                                      !- Snow Indicator
  21,                                     !- Day of Month
  7,                                      !- Month
  SummerDesignDay,                        !- Day Type
  0,                                      !- Daylight Saving Time Indicator
  Wetbulb,                                !- Humidity Indicating Type
  ,                                       !- Humidity Indicating Day Schedule Name
  DefaultMultipliers,                     !- Dry-Bulb Temperature Range Modifier Type
  ,                                       !- Dry-Bulb Temperature Range Modifier Schedule Name
  ASHRAETau,                              !- Solar Model Indicator
  ,                                       !- Beam Solar Day Schedule Name
  ,                                       !- Diffuse Solar Day Schedule Name
  0.307,                                  !- ASHRAE Taub {dimensionless}
  2.541;                                  !- ASHRAE Taud {dimensionless}

OS:SizingPeriod:DesignDay,
  {498ffe58-0d8b-4c27-94d2-86a0597d3039}, !- Handle
  CA_BLUE-CANYON-AP Ann Clg .4% Condns WB=>MDB, !- Name
  25.7,                                   !- Maximum Dry-Bulb Temperature {C}
  7.3,                                    !- Daily Dry-Bulb Temperature Range {deltaC}
  16.9,                                   !- Humidity Indicating Conditions at Maximum Dry-Bulb
  83421,                                  !- Barometric Pressure {Pa}
  2.8,                                    !- Wind Speed {m/s}
  280,                                    !- Wind Direction {deg}
  0,                                      !- Sky Clearness
  0,                                      !- Rain Indicator
  0,                                      !- Snow Indicator
  21,                                     !- Day of Month
  7,                                      !- Month
  SummerDesignDay,                        !- Day Type
  0,                                      !- Daylight Saving Time Indicator
  Wetbulb,                                !- Humidity Indicating Type
  ,                                       !- Humidity Indicating Day Schedule Name
  DefaultMultipliers,                     !- Dry-Bulb Temperature Range Modifier Type
  ,                                       !- Dry-Bulb Temperature Range Modifier Schedule Name
  ASHRAETau,                              !- Solar Model Indicator
  ,                                       !- Beam Solar Day Schedule Name
  ,                                       !- Diffuse Solar Day Schedule Name
  0.307,                                  !- ASHRAE Taub {dimensionless}
  2.541;                                  !- ASHRAE Taud {dimensionless}

OS:SizingPeriod:DesignDay,
  {d579c08e-ac33-487b-a470-36f6dd2c7ab1}, !- Handle
  CA_BLUE-CANYON-AP Ann Clg .4% Condns DP=>MDB, !- Name
  21.4,                                   !- Maximum Dry-Bulb Temperature {C}
  7.3,                                    !- Daily Dry-Bulb Temperature Range {deltaC}
  13.3,                                   !- Humidity Indicating Conditions at Maximum Dry-Bulb
  83421,                                  !- Barometric Pressure {Pa}
  2.8,                                    !- Wind Speed {m/s}
  280,                                    !- Wind Direction {deg}
  0,                                      !- Sky Clearness
  0,                                      !- Rain Indicator
  0,                                      !- Snow Indicator
  21,                                     !- Day of Month
  7,                                      !- Month
  SummerDesignDay,                        !- Day Type
  0,                                      !- Daylight Saving Time Indicator
  Dewpoint,                               !- Humidity Indicating Type
  ,                                       !- Humidity Indicating Day Schedule Name
  DefaultMultipliers,                     !- Dry-Bulb Temperature Range Modifier Type
  ,                                       !- Dry-Bulb Temperature Range Modifier Schedule Name
  ASHRAETau,                              !- Solar Model Indicator
  ,                                       !- Beam Solar Day Schedule Name
  ,                                       !- Diffuse Solar Day Schedule Name
  0.307,                                  !- ASHRAE Taub {dimensionless}
  2.541;                                  !- ASHRAE Taud {dimensionless}

OS:SizingPeriod:DesignDay,
  {ad3d7612-e48d-4264-b416-8ab81c9278ee}, !- Handle
  CA_BLUE-CANYON-AP June .4% Condns DB=>MCWB, !- Name
  29,                                     !- Maximum Dry-Bulb Temperature {C}
  7.6,                                    !- Daily Dry-Bulb Temperature Range {deltaC}
  14.8,                                   !- Humidity Indicating Conditions at Maximum Dry-Bulb
  83421,                                  !- Barometric Pressure {Pa}
  2.2,                                    !- Wind Speed {m/s}
  280,                                    !- Wind Direction {deg}
  0,                                      !- Sky Clearness
  0,                                      !- Rain Indicator
  0,                                      !- Snow Indicator
  21,                                     !- Day of Month
  6,                                      !- Month
  SummerDesignDay,                        !- Day Type
  0,                                      !- Daylight Saving Time Indicator
  Wetbulb,                                !- Humidity Indicating Type
  ,                                       !- Humidity Indicating Day Schedule Name
  DefaultMultipliers,                     !- Dry-Bulb Temperature Range Modifier Type
  ,                                       !- Dry-Bulb Temperature Range Modifier Schedule Name
  ASHRAETau,                              !- Solar Model Indicator
  ,                                       !- Beam Solar Day Schedule Name
  ,                                       !- Diffuse Solar Day Schedule Name
  0.305,                                  !- ASHRAE Taub {dimensionless}
  2.538;                                  !- ASHRAE Taud {dimensionless}

OS:SizingPeriod:DesignDay,
  {a92661ad-e762-4349-ba31-f8aacc413200}, !- Handle
  CA_BLUE-CANYON-AP July .4% Condns DB=>MCWB, !- Name
  30.4,                                   !- Maximum Dry-Bulb Temperature {C}
  7.3,                                    !- Daily Dry-Bulb Temperature Range {deltaC}
  15.9,                                   !- Humidity Indicating Conditions at Maximum Dry-Bulb
  83421,                                  !- Barometric Pressure {Pa}
  1.9,                                    !- Wind Speed {m/s}
  280,                                    !- Wind Direction {deg}
  0,                                      !- Sky Clearness
  0,                                      !- Rain Indicator
  0,                                      !- Snow Indicator
  21,                                     !- Day of Month
  7,                                      !- Month
  SummerDesignDay,                        !- Day Type
  0,                                      !- Daylight Saving Time Indicator
  Wetbulb,                                !- Humidity Indicating Type
  ,                                       !- Humidity Indicating Day Schedule Name
  DefaultMultipliers,                     !- Dry-Bulb Temperature Range Modifier Type
  ,                                       !- Dry-Bulb Temperature Range Modifier Schedule Name
  ASHRAETau,                              !- Solar Model Indicator
  ,                                       !- Beam Solar Day Schedule Name
  ,                                       !- Diffuse Solar Day Schedule Name
  0.307,                                  !- ASHRAE Taub {dimensionless}
  2.541;                                  !- ASHRAE Taud {dimensionless}

OS:SizingPeriod:DesignDay,
  {e426843e-e3f5-4046-8ba3-ec84c6ed503e}, !- Handle
  CA_BLUE-CANYON-AP August .4% Condns DB=>MCWB, !- Name
  30.2,                                   !- Maximum Dry-Bulb Temperature {C}
  7.6,                                    !- Daily Dry-Bulb Temperature Range {deltaC}
  15.1,                                   !- Humidity Indicating Conditions at Maximum Dry-Bulb
  83421,                                  !- Barometric Pressure {Pa}
  2,                                      !- Wind Speed {m/s}
  280,                                    !- Wind Direction {deg}
  0,                                      !- Sky Clearness
  0,                                      !- Rain Indicator
  0,                                      !- Snow Indicator
  21,                                     !- Day of Month
  8,                                      !- Month
  SummerDesignDay,                        !- Day Type
  0,                                      !- Daylight Saving Time Indicator
  Wetbulb,                                !- Humidity Indicating Type
  ,                                       !- Humidity Indicating Day Schedule Name
  DefaultMultipliers,                     !- Dry-Bulb Temperature Range Modifier Type
  ,                                       !- Dry-Bulb Temperature Range Modifier Schedule Name
  ASHRAETau,                              !- Solar Model Indicator
  ,                                       !- Beam Solar Day Schedule Name
  ,                                       !- Diffuse Solar Day Schedule Name
  0.294,                                  !- ASHRAE Taub {dimensionless}
  2.566;                                  !- ASHRAE Taud {dimensionless}

OS:SizingPeriod:DesignDay,
  {f5771ec0-ca94-4697-b3d3-ef0058cba14b}, !- Handle
  CA_BLUE-CANYON-AP September .4% Condns DB=>MCWB, !- Name
  28.7,                                   !- Maximum Dry-Bulb Temperature {C}
  7.7,                                    !- Daily Dry-Bulb Temperature Range {deltaC}
  12.9,                                   !- Humidity Indicating Conditions at Maximum Dry-Bulb
  83421,                                  !- Barometric Pressure {Pa}
  2.1,                                    !- Wind Speed {m/s}
  280,                                    !- Wind Direction {deg}
  0,                                      !- Sky Clearness
  0,                                      !- Rain Indicator
  0,                                      !- Snow Indicator
  21,                                     !- Day of Month
  9,                                      !- Month
  SummerDesignDay,                        !- Day Type
  0,                                      !- Daylight Saving Time Indicator
  Wetbulb,                                !- Humidity Indicating Type
  ,                                       !- Humidity Indicating Day Schedule Name
  DefaultMultipliers,                     !- Dry-Bulb Temperature Range Modifier Type
  ,                                       !- Dry-Bulb Temperature Range Modifier Schedule Name
  ASHRAETau,                              !- Solar Model Indicator
  ,                                       !- Beam Solar Day Schedule Name
  ,                                       !- Diffuse Solar Day Schedule Name
  0.299,                                  !- ASHRAE Taub {dimensionless}
  2.563;                                  !- ASHRAE Taud {dimensionless}

OS:SizingPeriod:DesignDay,
  {0b2ab130-bc98-468a-ab37-e71e646443be}, !- Handle
  CA_BLUE-CANYON-AP October .4% Condns DB=>MCWB, !- Name
  26.1,                                   !- Maximum Dry-Bulb Temperature {C}
  7,                                      !- Daily Dry-Bulb Temperature Range {deltaC}
  11.5,                                   !- Humidity Indicating Conditions at Maximum Dry-Bulb
  83421,                                  !- Barometric Pressure {Pa}
  2.2,                                    !- Wind Speed {m/s}
  280,                                    !- Wind Direction {deg}
  0,                                      !- Sky Clearness
  0,                                      !- Rain Indicator
  0,                                      !- Snow Indicator
  21,                                     !- Day of Month
  10,                                     !- Month
  SummerDesignDay,                        !- Day Type
  0,                                      !- Daylight Saving Time Indicator
  Wetbulb,                                !- Humidity Indicating Type
  ,                                       !- Humidity Indicating Day Schedule Name
  DefaultMultipliers,                     !- Dry-Bulb Temperature Range Modifier Type
  ,                                       !- Dry-Bulb Temperature Range Modifier Schedule Name
  ASHRAETau,                              !- Solar Model Indicator
  ,                                       !- Beam Solar Day Schedule Name
  ,                                       !- Diffuse Solar Day Schedule Name
  0.285,                                  !- ASHRAE Taub {dimensionless}
  2.602;                                  !- ASHRAE Taud {dimensionless}

OS:SizingPeriod:DesignDay,
  {e7598b1c-4ccc-4215-98e1-8baf6150a00f}, !- Handle
  CA_BLUE-CANYON-AP November .4% Condns DB=>MCWB, !- Name
  20.6,                                   !- Maximum Dry-Bulb Temperature {C}
  6,                                      !- Daily Dry-Bulb Temperature Range {deltaC}
  9.6,                                    !- Humidity Indicating Conditions at Maximum Dry-Bulb
  83421,                                  !- Barometric Pressure {Pa}
  2.3,                                    !- Wind Speed {m/s}
  280,                                    !- Wind Direction {deg}
  0,                                      !- Sky Clearness
  0,                                      !- Rain Indicator
  0,                                      !- Snow Indicator
  21,                                     !- Day of Month
  11,                                     !- Month
  SummerDesignDay,                        !- Day Type
  0,                                      !- Daylight Saving Time Indicator
  Wetbulb,                                !- Humidity Indicating Type
  ,                                       !- Humidity Indicating Day Schedule Name
  DefaultMultipliers,                     !- Dry-Bulb Temperature Range Modifier Type
  ,                                       !- Dry-Bulb Temperature Range Modifier Schedule Name
  ASHRAETau,                              !- Solar Model Indicator
  ,                                       !- Beam Solar Day Schedule Name
  ,                                       !- Diffuse Solar Day Schedule Name
  0.268,                                  !- ASHRAE Taub {dimensionless}
  2.612;                                  !- ASHRAE Taud {dimensionless}

OS:WeatherFile,
  {cce569ba-d7ca-44d8-b6dc-9ca47cbebd04}, !- Handle
  CA_BLUE-CANYON-AP,                      !- City
  -,                                      !- State Province Region
  USA,                                    !- Country
  Custom-725845,                          !- Data Source
  725845,                                 !- WMO Number
  39.28,                                  !- Latitude {deg}
  -120.71,                                !- Longitude {deg}
  -8,                                     !- Time Zone {hr}
  1610,                                   !- Elevation {m}
  file:///C:/Users/agoyal/OneDrive - TRC/Documents/CBECC-Com 2022 Data/EPW/CTZ16S22A.epw, !- Url
  6ECDAA12;                               !- Checksum

OS:Sizing:Parameters,
  {e6c3161b-9ba1-40d2-966b-fea6aa9d9753}, !- Handle
  1,                                      !- Heating Sizing Factor
  1;                                      !- Cooling Sizing Factor

OS:Material,
  {9a69540d-c117-47ab-a14b-85523708a9a9}, !- Handle
  Gypsum Board - 1/2 in.,                 !- Name
  MediumRough,                            !- Roughness
  0.0127,                                 !- Thickness {m}
  0.158656446866265,                      !- Conductivity {W/m-K}
  640.738534958406,                       !- Density {kg/m3}
  1130.436,                               !- Specific Heat {J/kg-K}
  0.9,                                    !- Thermal Absorptance
  0.7,                                    !- Solar Absorptance
  0.8;                                    !- Visible Absorptance

OS:Material,
  {22b1a041-254f-4b7c-bd8f-616038eb7374}, !- Handle
  Gypsum Board - 5/8 in.,                 !- Name
  Smooth,                                 !- Roughness
  0.016002,                               !- Thickness {m}
  0.158656446866265,                      !- Conductivity {W/m-K}
  640.738534958406,                       !- Density {kg/m3}
  1130.436,                               !- Specific Heat {J/kg-K}
  0.9,                                    !- Thermal Absorptance
  0.7,                                    !- Solar Absorptance
  0.8;                                    !- Visible Absorptance

OS:Material,
  {c5a20ce6-3f2b-46f7-947f-81c0208900cc}, !- Handle
  Stucco - 7/8 in.,                       !- Name
  MediumRough,                            !- Roughness
  0.022352,                               !- Thickness {m}
  0.700947539880412,                      !- Conductivity {W/m-K}
  1855.09824333832,                       !- Density {kg/m3}
  837.36,                                 !- Specific Heat {J/kg-K}
  0.9,                                    !- Thermal Absorptance
  0.7,                                    !- Solar Absorptance
  0.8;                                    !- Visible Absorptance

OS:Material,
  {a60b7ce7-1f89-408d-bf89-1de1e1e396fe}, !- Handle
  Carpet - 3/4 in.,                       !- Name
  Smooth,                                 !- Roughness
  0.01905,                                !- Thickness {m}
  0.0455183217255675,                     !- Conductivity {W/m-K}
  288.332340731283,                       !- Density {kg/m3}
  1381.644,                               !- Specific Heat {J/kg-K}
  0.9,                                    !- Thermal Absorptance
  0.7,                                    !- Solar Absorptance
  0.8;                                    !- Visible Absorptance

OS:Material,
  {545749df-8c64-45cc-8ec6-6d1445afa829}, !- Handle
  Plywood - 5/8 in.,                      !- Name
  Smooth,                                 !- Roughness
  0.016002,                               !- Thickness {m}
  0.115440002246971,                      !- Conductivity {W/m-K}
  480.553901218804,                       !- Density {kg/m3}
  1884.06;                                !- Specific Heat {J/kg-K}

OS:Material,
  {c14efd2d-5d2c-48f1-bc51-dabaf4ad2d81}, !- Handle
  Compliance Insulation R1.54,            !- Name
  Smooth,                                 !- Roughness
  0.0062429136,                           !- Thickness {m}
  0.0230187710627394,                     !- Conductivity {W/m-K}
  16.0184633739601,                       !- Density {kg/m3}
  1130.436;                               !- Specific Heat {J/kg-K}

OS:Material,
  {1366aebf-7ac4-4060-84b9-215a08ad0ab8}, !- Handle
  Compliance Insulation R1.00,            !- Name
  Smooth,                                 !- Roughness
  0.00405384,                             !- Thickness {m}
  0.0230187710627394,                     !- Conductivity {W/m-K}
  16.0184633739601,                       !- Density {kg/m3}
  1130.436;                               !- Specific Heat {J/kg-K}

OS:Material,
  {ca22d647-cf0d-417e-aa00-9a9d9ddb3a78}, !- Handle
  Compliance Insulation R1.35,            !- Name
  Smooth,                                 !- Roughness
  0.005472684,                            !- Thickness {m}
  0.0230187710627394,                     !- Conductivity {W/m-K}
  16.0184633739601,                       !- Density {kg/m3}
  1130.436;                               !- Specific Heat {J/kg-K}

OS:Material,
  {cc558dba-e0e9-4f15-9c32-5a7050d4a720}, !- Handle
  Compliance Insulation R3.00,            !- Name
  MediumRough,                            !- Roughness
  0.01216152,                             !- Thickness {m}
  0.0230187710627394,                     !- Conductivity {W/m-K}
  16.0184633739601,                       !- Density {kg/m3}
  1130.436,                               !- Specific Heat {J/kg-K}
  0.9,                                    !- Thermal Absorptance
  0.7,                                    !- Solar Absorptance
  0.8;                                    !- Visible Absorptance

OS:Material:NoMass,
  {45ce8193-ec89-49f8-b91d-79d66a6ba351}, !- Handle
  WoodFrameWall16inOC R11.25,             !- Name
  Smooth,                                 !- Roughness
  1.26865197459958;                       !- Thermal Resistance {m2-K/W}

OS:Material,
  {b823e4b4-4b97-451d-b4d7-9d8cc642eb0d}, !- Handle
  Concrete - 140 lb/ft3 - 10 in.,         !- Name
  Smooth,                                 !- Roughness
  0.254,                                  !- Thickness {m}
  1.95140333633374,                       !- Conductivity {W/m-K}
  2239.06081041215,                       !- Density {kg/m3}
  921.096,                                !- Specific Heat {J/kg-K}
  0.9,                                    !- Thermal Absorptance
  0.7,                                    !- Solar Absorptance
  0.8;                                    !- Visible Absorptance

OS:Material:NoMass,
  {331b0538-39eb-4d48-9eee-6471cd22d58c}, !- Handle
  WoodRoof16OCCavInsR38,                  !- Name
  Smooth,                                 !- Roughness
  4.68171312301043,                       !- Thermal Resistance {m2-K/W}
  0.9,                                    !- Thermal Absorptance
  0.7,                                    !- Solar Absorptance
  0.8;                                    !- Visible Absorptance

OS:Material,
  {3b90ce54-4e8a-4226-94ac-a030c487d92f}, !- Handle
  Building Paper - 1/16 in.,              !- Name
  Smooth,                                 !- Roughness
  0.001524,                               !- Thickness {m}
  0.28851346888411,                       !- Conductivity {W/m-K}
  96.1107802437608,                       !- Density {kg/m3}
  1256.04;                                !- Specific Heat {J/kg-K}

OS:Material,
  {0adf0bef-cc59-4581-8951-21560586dcd7}, !- Handle
  Fiberboard sheathing - 1/2 in.,         !- Name
  Smooth,                                 !- Roughness
  0.0127,                                 !- Thickness {m}
  0.0706139743879526,                     !- Conductivity {W/m-K}
  399.820845814045,                       !- Density {kg/m3}
  1297.908;                               !- Specific Heat {J/kg-K}

OS:Material,
  {ebd7b34b-b02b-4a3a-b6f8-4b6468aab0e6}, !- Handle
  Roofing felt - 1/8 in.,                 !- Name
  MediumRough,                            !- Roughness
  0.001524,                               !- Thickness {m}
  1.19714916872909,                       !- Conductivity {W/m-K}
  230.665872585026,                       !- Density {kg/m3}
  1256.04,                                !- Specific Heat {J/kg-K}
  0.75,                                   !- Thermal Absorptance
  0.9,                                    !- Solar Absorptance
  0.85;                                   !- Visible Absorptance

OS:Material:NoMass,
  {7c4509dc-7692-4dba-b427-0a32896edb4e}, !- Handle
  WoodFloor16inOCCavInsR0,                !- Name
  Smooth,                                 !- Roughness
  0.162021368987722;                      !- Thermal Resistance {m2-K/W}

OS:Material,
  {7b0bf05d-49ca-4323-8a42-0b8f95260a21}, !- Handle
  Stone - 1 in.,                          !- Name
  MediumRough,                            !- Roughness
  0.0254,                                 !- Thickness {m}
  1.80342552235899,                       !- Conductivity {W/m-K}
  2239.06081041215,                       !- Density {kg/m3}
  921.096,                                !- Specific Heat {J/kg-K}
  0.85,                                   !- Thermal Absorptance
  0.92,                                   !- Solar Absorptance
  0.85;                                   !- Visible Absorptance

OS:Material:NoMass,
  {82299def-ae69-4cca-a2aa-f4befb367c75}, !- Handle
  WoodFraming16inOC,                      !- Name
  Smooth,                                 !- Roughness
  0.14969365612996;                       !- Thermal Resistance {m2-K/W}

OS:Material,
  {feaeca47-ba6f-48aa-9927-dcfa6796fdee}, !- Handle
  Concrete - 140 lb/ft3 - 8 in.,          !- Name
  Smooth,                                 !- Roughness
  0.2032,                                 !- Thickness {m}
  1.95140333633374,                       !- Conductivity {W/m-K}
  2239.06081041215,                       !- Density {kg/m3}
  921.096;                                !- Specific Heat {J/kg-K}

OS:Material,
  {fa3bc2e3-9196-4e6f-82eb-0acaeb65dd91}, !- Handle
  Concrete - 140 lb/ft3 - 4 in.,          !- Name
  Smooth,                                 !- Roughness
  0.1016,                                 !- Thickness {m}
  1.95140333633374,                       !- Conductivity {W/m-K}
  2239.06081041215,                       !- Density {kg/m3}
  921.096;                                !- Specific Heat {J/kg-K}

OS:Material,
  {9673071d-af26-4de2-b0a3-07abe7a452a5}, !- Handle
  Compliance Insulation R0.01,            !- Name
  Smooth,                                 !- Roughness
  4.05384e-005,                           !- Thickness {m}