
OS:Version,
  {ad940f22-c9b3-4b7b-abe7-c38492640893}, !- Handle
  2.7.2;                                  !- Version Identifier

OS:SimulationControl,
  {e4cdf6db-1625-4d29-992d-1c630ecfccf3}, !- Handle
  ,                                       !- Do Zone Sizing Calculation
  ,                                       !- Do System Sizing Calculation
  ,                                       !- Do Plant Sizing Calculation
  Yes,                                    !- Run Simulation for Sizing Periods
  No,                                     !- Run Simulation for Weather File Run Periods
  ,                                       !- Loads Convergence Tolerance Value
  ,                                       !- Temperature Convergence Tolerance Value {deltaC}
  FullExterior,                           !- Solar Distribution
  50;                                     !- Maximum Number of Warmup Days

OS:Site,
  {c0500f12-b04f-4b52-8414-aa9696c9a839}, !- Handle
  CA_BLUE-CANYON-AP_USA Design_Conditions, !- Name
  39.28,                                  !- Latitude {deg}
  -120.71,                                !- Longitude {deg}
  -8,                                     !- Time Zone {hr}
  1609.9536,                              !- Elevation {m}
  ;                                       !- Terrain

OS:SizingPeriod:DesignDay,
  {30c1936f-0f33-4311-9577-c93e0c524780}, !- Handle
  CA_BLUE-CANYON-AP Ann Htg 99.6% Condns DB, !- Name
  -6,                                     !- Maximum Dry-Bulb Temperature {C}
  0,                                      !- Daily Dry-Bulb Temperature Range {deltaC}
  -6,                                     !- Humidity Indicating Conditions at Maximum Dry-Bulb
  83421,                                  !- Barometric Pressure {Pa}
  2.3,                                    !- Wind Speed {m/s}
  60,                                     !- Wind Direction {deg}
  0,                                      !- Sky Clearness
  0,                                      !- Rain Indicator
  0,                                      !- Snow Indicator
  21,                                     !- Day of Month
  2,                                      !- Month
  WinterDesignDay,                        !- Day Type
  0,                                      !- Daylight Saving Time Indicator
  Wetbulb,                                !- Humidity Indicating Type
  ,                                       !- Humidity Indicating Day Schedule Name
  DefaultMultipliers,                     !- Dry-Bulb Temperature Range Modifier Type
  ,                                       !- Dry-Bulb Temperature Range Modifier Schedule Name
  ASHRAEClearSky;                         !- Solar Model Indicator

OS:SizingPeriod:DesignDay,
  {78d8acbd-d67c-4015-986a-d59ba3450b84}, !- Handle
  CA_BLUE-CANYON-AP Ann Clg .4% Condns DB=>MWB, !- Name
  28.6,                                   !- Maximum Dry-Bulb Temperature {C}
  7.3,                                    !- Daily Dry-Bulb Temperature Range {deltaC}
  14.9,                                   !- Humidity Indicating Conditions at Maximum Dry-Bulb
  83421,                                  !- Barometric Pressure {Pa}
  2.8,                                    !- Wind Speed {m/s}
  280,                                    !- Wind Direction {deg}
  0,                                      !- Sky Clearness
  0,                                      !- Rain Indicator
  0,                                      !- Snow Indicator
  21,                                     !- Day of Month
  7,                                      !- Month
  SummerDesignDay,                        !- Day Type
  0,                                      !- Daylight Saving Time Indicator
  Wetbulb,                                !- Humidity Indicating Type
  ,                                       !- Humidity Indicating Day Schedule Name
  DefaultMultipliers,                     !- Dry-Bulb Temperature Range Modifier Type
  ,                                       !- Dry-Bulb Temperature Range Modifier Schedule Name
  ASHRAETau,                              !- Solar Model Indicator
  ,                                       !- Beam Solar Day Schedule Name
  ,                                       !- Diffuse Solar Day Schedule Name
  0.307,                                  !- ASHRAE Taub {dimensionless}
  2.541;                                  !- ASHRAE Taud {dimensionless}

OS:SizingPeriod:DesignDay,
  {b8c80877-17da-46ed-be61-bbf5e5ec1400}, !- Handle
  CA_BLUE-CANYON-AP Ann Clg .4% Condns WB=>MDB, !- Name
  25.7,                                   !- Maximum Dry-Bulb Temperature {C}
  7.3,                                    !- Daily Dry-Bulb Temperature Range {deltaC}
  16.9,                                   !- Humidity Indicating Conditions at Maximum Dry-Bulb
  83421,                                  !- Barometric Pressure {Pa}
  2.8,                                    !- Wind Speed {m/s}
  280,                                    !- Wind Direction {deg}
  0,                                      !- Sky Clearness
  0,                                      !- Rain Indicator
  0,                                      !- Snow Indicator
  21,                                     !- Day of Month
  7,                                      !- Month
  SummerDesignDay,                        !- Day Type
  0,                                      !- Daylight Saving Time Indicator
  Wetbulb,                                !- Humidity Indicating Type
  ,                                       !- Humidity Indicating Day Schedule Name
  DefaultMultipliers,                     !- Dry-Bulb Temperature Range Modifier Type
  ,                                       !- Dry-Bulb Temperature Range Modifier Schedule Name
  ASHRAETau,                              !- Solar Model Indicator
  ,                                       !- Beam Solar Day Schedule Name
  ,                                       !- Diffuse Solar Day Schedule Name
  0.307,                                  !- ASHRAE Taub {dimensionless}
  2.541;                                  !- ASHRAE Taud {dimensionless}

OS:SizingPeriod:DesignDay,
  {8444fcc6-8bff-40a6-8ff9-808117571fc1}, !- Handle
  CA_BLUE-CANYON-AP Ann Clg .4% Condns DP=>MDB, !- Name
  21.4,                                   !- Maximum Dry-Bulb Temperature {C}
  7.3,                                    !- Daily Dry-Bulb Temperature Range {deltaC}
  13.3,                                   !- Humidity Indicating Conditions at Maximum Dry-Bulb
  83421,                                  !- Barometric Pressure {Pa}
  2.8,                                    !- Wind Speed {m/s}
  280,                                    !- Wind Direction {deg}
  0,                                      !- Sky Clearness
  0,                                      !- Rain Indicator
  0,                                      !- Snow Indicator
  21,                                     !- Day of Month
  7,                                      !- Month
  SummerDesignDay,                        !- Day Type
  0,                                      !- Daylight Saving Time Indicator
  Dewpoint,                               !- Humidity Indicating Type
  ,                                       !- Humidity Indicating Day Schedule Name
  DefaultMultipliers,                     !- Dry-Bulb Temperature Range Modifier Type
  ,                                       !- Dry-Bulb Temperature Range Modifier Schedule Name
  ASHRAETau,                              !- Solar Model Indicator
  ,                                       !- Beam Solar Day Schedule Name
  ,                                       !- Diffuse Solar Day Schedule Name
  0.307,                                  !- ASHRAE Taub {dimensionless}
  2.541;                                  !- ASHRAE Taud {dimensionless}

OS:SizingPeriod:DesignDay,
  {77475280-6079-4da2-b96b-66589b3b761d}, !- Handle
  CA_BLUE-CANYON-AP June .4% Condns DB=>MCWB, !- Name
  29,                                     !- Maximum Dry-Bulb Temperature {C}
  7.6,                                    !- Daily Dry-Bulb Temperature Range {deltaC}
  14.8,                                   !- Humidity Indicating Conditions at Maximum Dry-Bulb
  83421,                                  !- Barometric Pressure {Pa}
  2.2,                                    !- Wind Speed {m/s}
  280,                                    !- Wind Direction {deg}
  0,                                      !- Sky Clearness
  0,                                      !- Rain Indicator
  0,                                      !- Snow Indicator
  21,                                     !- Day of Month
  6,                                      !- Month
  SummerDesignDay,                        !- Day Type
  0,                                      !- Daylight Saving Time Indicator
  Wetbulb,                                !- Humidity Indicating Type
  ,                                       !- Humidity Indicating Day Schedule Name
  DefaultMultipliers,                     !- Dry-Bulb Temperature Range Modifier Type
  ,                                       !- Dry-Bulb Temperature Range Modifier Schedule Name
  ASHRAETau,                              !- Solar Model Indicator
  ,                                       !- Beam Solar Day Schedule Name
  ,                                       !- Diffuse Solar Day Schedule Name
  0.305,                                  !- ASHRAE Taub {dimensionless}
  2.538;                                  !- ASHRAE Taud {dimensionless}

OS:SizingPeriod:DesignDay,
  {aa2046f4-c5e9-4ef8-860b-775509f818f8}, !- Handle
  CA_BLUE-CANYON-AP July .4% Condns DB=>MCWB, !- Name
  30.4,                                   !- Maximum Dry-Bulb Temperature {C}
  7.3,                                    !- Daily Dry-Bulb Temperature Range {deltaC}
  15.9,                                   !- Humidity Indicating Conditions at Maximum Dry-Bulb
  83421,                                  !- Barometric Pressure {Pa}
  1.9,                                    !- Wind Speed {m/s}
  280,                                    !- Wind Direction {deg}
  0,                                      !- Sky Clearness
  0,                                      !- Rain Indicator
  0,                                      !- Snow Indicator
  21,                                     !- Day of Month
  7,                                      !- Month
  SummerDesignDay,                        !- Day Type
  0,                                      !- Daylight Saving Time Indicator
  Wetbulb,                                !- Humidity Indicating Type
  ,                                       !- Humidity Indicating Day Schedule Name
  DefaultMultipliers,                     !- Dry-Bulb Temperature Range Modifier Type
  ,                                       !- Dry-Bulb Temperature Range Modifier Schedule Name
  ASHRAETau,                              !- Solar Model Indicator
  ,                                       !- Beam Solar Day Schedule Name
  ,                                       !- Diffuse Solar Day Schedule Name
  0.307,                                  !- ASHRAE Taub {dimensionless}
  2.541;                                  !- ASHRAE Taud {dimensionless}

OS:SizingPeriod:DesignDay,
  {ea897169-2662-46ee-a576-00d246a6d808}, !- Handle
  CA_BLUE-CANYON-AP August .4% Condns DB=>MCWB, !- Name
  30.2,                                   !- Maximum Dry-Bulb Temperature {C}
  7.6,                                    !- Daily Dry-Bulb Temperature Range {deltaC}
  15.1,                                   !- Humidity Indicating Conditions at Maximum Dry-Bulb
  83421,                                  !- Barometric Pressure {Pa}
  2,                                      !- Wind Speed {m/s}
  280,                                    !- Wind Direction {deg}
  0,                                      !- Sky Clearness
  0,                                      !- Rain Indicator
  0,                                      !- Snow Indicator
  21,                                     !- Day of Month
  8,                                      !- Month
  SummerDesignDay,                        !- Day Type
  0,                                      !- Daylight Saving Time Indicator
  Wetbulb,                                !- Humidity Indicating Type
  ,                                       !- Humidity Indicating Day Schedule Name
  DefaultMultipliers,                     !- Dry-Bulb Temperature Range Modifier Type
  ,                                       !- Dry-Bulb Temperature Range Modifier Schedule Name
  ASHRAETau,                              !- Solar Model Indicator
  ,                                       !- Beam Solar Day Schedule Name
  ,                                       !- Diffuse Solar Day Schedule Name
  0.294,                                  !- ASHRAE Taub {dimensionless}
  2.566;                                  !- ASHRAE Taud {dimensionless}

OS:SizingPeriod:DesignDay,
  {41b2f74e-ef02-4c42-858b-3405509d1a79}, !- Handle
  CA_BLUE-CANYON-AP September .4% Condns DB=>MCWB, !- Name
  28.7,                                   !- Maximum Dry-Bulb Temperature {C}
  7.7,                                    !- Daily Dry-Bulb Temperature Range {deltaC}
  12.9,                                   !- Humidity Indicating Conditions at Maximum Dry-Bulb
  83421,                                  !- Barometric Pressure {Pa}
  2.1,                                    !- Wind Speed {m/s}
  280,                                    !- Wind Direction {deg}
  0,                                      !- Sky Clearness
  0,                                      !- Rain Indicator
  0,                                      !- Snow Indicator
  21,                                     !- Day of Month
  9,                                      !- Month
  SummerDesignDay,                        !- Day Type
  0,                                      !- Daylight Saving Time Indicator
  Wetbulb,                                !- Humidity Indicating Type
  ,                                       !- Humidity Indicating Day Schedule Name
  DefaultMultipliers,                     !- Dry-Bulb Temperature Range Modifier Type
  ,                                       !- Dry-Bulb Temperature Range Modifier Schedule Name
  ASHRAETau,                              !- Solar Model Indicator
  ,                                       !- Beam Solar Day Schedule Name
  ,                                       !- Diffuse Solar Day Schedule Name
  0.299,                                  !- ASHRAE Taub {dimensionless}
  2.563;                                  !- ASHRAE Taud {dimensionless}

OS:SizingPeriod:DesignDay,
  {4c588be3-a813-42dd-9f70-3c458e40b583}, !- Handle
  CA_BLUE-CANYON-AP October .4% Condns DB=>MCWB, !- Name
  26.1,                                   !- Maximum Dry-Bulb Temperature {C}
  7,                                      !- Daily Dry-Bulb Temperature Range {deltaC}
  11.5,                                   !- Humidity Indicating Conditions at Maximum Dry-Bulb
  83421,                                  !- Barometric Pressure {Pa}
  2.2,                                    !- Wind Speed {m/s}
  280,                                    !- Wind Direction {deg}
  0,                                      !- Sky Clearness
  0,                                      !- Rain Indicator
  0,                                      !- Snow Indicator
  21,                                     !- Day of Month
  10,                                     !- Month
  SummerDesignDay,                        !- Day Type
  0,                                      !- Daylight Saving Time Indicator
  Wetbulb,                                !- Humidity Indicating Type
  ,                                       !- Humidity Indicating Day Schedule Name
  DefaultMultipliers,                     !- Dry-Bulb Temperature Range Modifier Type
  ,                                       !- Dry-Bulb Temperature Range Modifier Schedule Name
  ASHRAETau,                              !- Solar Model Indicator
  ,                                       !- Beam Solar Day Schedule Name
  ,                                       !- Diffuse Solar Day Schedule Name
  0.285,                                  !- ASHRAE Taub {dimensionless}
  2.602;                                  !- ASHRAE Taud {dimensionless}

OS:SizingPeriod:DesignDay,
  {bada0032-7640-443d-851d-59b0b8108a22}, !- Handle
  CA_BLUE-CANYON-AP November .4% Condns DB=>MCWB, !- Name
  20.6,                                   !- Maximum Dry-Bulb Temperature {C}
  6,                                      !- Daily Dry-Bulb Temperature Range {deltaC}
  9.6,                                    !- Humidity Indicating Conditions at Maximum Dry-Bulb
  83421,                                  !- Barometric Pressure {Pa}
  2.3,                                    !- Wind Speed {m/s}
  280,                                    !- Wind Direction {deg}
  0,                                      !- Sky Clearness
  0,                                      !- Rain Indicator
  0,                                      !- Snow Indicator
  21,                                     !- Day of Month
  11,                                     !- Month
  SummerDesignDay,                        !- Day Type
  0,                                      !- Daylight Saving Time Indicator
  Wetbulb,                                !- Humidity Indicating Type
  ,                                       !- Humidity Indicating Day Schedule Name
  DefaultMultipliers,                     !- Dry-Bulb Temperature Range Modifier Type
  ,                                       !- Dry-Bulb Temperature Range Modifier Schedule Name
  ASHRAETau,                              !- Solar Model Indicator
  ,                                       !- Beam Solar Day Schedule Name
  ,                                       !- Diffuse Solar Day Schedule Name
  0.268,                                  !- ASHRAE Taub {dimensionless}
  2.612;                                  !- ASHRAE Taud {dimensionless}

OS:WeatherFile,
  {44900b20-9726-40a2-bbc8-9e656210a476}, !- Handle
  CA_BLUE-CANYON-AP,                      !- City
  -,                                      !- State Province Region
  USA,                                    !- Country
  Custom-725845,                          !- Data Source
  725845,                                 !- WMO Number
  39.28,                                  !- Latitude {deg}
  -120.71,                                !- Longitude {deg}
  -8,                                     !- Time Zone {hr}
  1610,                                   !- Elevation {m}
  file:///C:/Users/agoyal/Documents/CBECC-Com 2022 Data/EPW/CTZ16S22A.epw, !- Url
  6ECDAA12;                               !- Checksum

OS:Sizing:Parameters,
  {722d0b3f-251d-4f99-86bd-07c0e749da82}, !- Handle
  1,                                      !- Heating Sizing Factor
  1;                                      !- Cooling Sizing Factor

OS:Material,
  {d2e6ef96-6d40-4208-9a07-7f4604ff412e}, !- Handle
  Gypsum Board - 1/2 in.,                 !- Name
  Smooth,                                 !- Roughness
  0.0127,                                 !- Thickness {m}
  0.158656446866265,                      !- Conductivity {W/m-K}
  640.738534958406,                       !- Density {kg/m3}
  1130.436,                               !- Specific Heat {J/kg-K}
  0.9,                                    !- Thermal Absorptance
  0.7,                                    !- Solar Absorptance
  0.8;                                    !- Visible Absorptance

OS:Material,
  {98d6b872-519c-4553-840c-b90230cb0964}, !- Handle
  Gypsum Board - 5/8 in.,                 !- Name
  MediumRough,                            !- Roughness
  0.016002,                               !- Thickness {m}
  0.158656446866265,                      !- Conductivity {W/m-K}
  640.738534958406,                       !- Density {kg/m3}
  1130.436,                               !- Specific Heat {J/kg-K}
  0.9,                                    !- Thermal Absorptance
  0.7,                                    !- Solar Absorptance
  0.8;                                    !- Visible Absorptance

OS:Material,
  {ff64688a-ea48-41b9-aa88-8ad3a1bcf81f}, !- Handle
  Stucco - 7/8 in.,                       !- Name
  MediumRough,                            !- Roughness
  0.022352,                               !- Thickness {m}
  0.700947539880412,                      !- Conductivity {W/m-K}
  1855.09824333832,                       !- Density {kg/m3}
  837.36,                                 !- Specific Heat {J/kg-K}
  0.9,                                    !- Thermal Absorptance
  0.7,                                    !- Solar Absorptance
  0.8;                                    !- Visible Absorptance

OS:Material,
  {ef08e257-c6df-4286-be5d-2ccd55fde71d}, !- Handle
  Carpet - 3/4 in.,                       !- Name
  Smooth,                                 !- Roughness
  0.01905,                                !- Thickness {m}
  0.0455183217255675,                     !- Conductivity {W/m-K}
  288.332340731283,                       !- Density {kg/m3}
  1381.644,                               !- Specific Heat {J/kg-K}
  0.9,                                    !- Thermal Absorptance
  0.7,                                    !- Solar Absorptance
  0.8;                                    !- Visible Absorptance

OS:Material,
  {d1f08437-81fe-496f-b19a-31f0fe9fc21e}, !- Handle
  Plywood - 5/8 in.,                      !- Name
  Smooth,                                 !- Roughness
  0.016002,                               !- Thickness {m}
  0.115440002246971,                      !- Conductivity {W/m-K}
  480.553901218804,                       !- Density {kg/m3}
  1884.06;                                !- Specific Heat {J/kg-K}

OS:Material,
  {37b96391-cec5-4c19-a1b9-d1968b1e8c01}, !- Handle
  Concrete - 140 lb/ft3 - 4 in.,          !- Name
  Smooth,                                 !- Roughness
  0.1016,                                 !- Thickness {m}
  1.95140333633374,                       !- Conductivity {W/m-K}
  2239.06081041215,                       !- Density {kg/m3}
  921.096;                                !- Specific Heat {J/kg-K}

OS:Material,
  {9c5c7849-8d40-46a4-9dd5-1fe540e65805}, !- Handle
  Compliance Insulation R0.20,            !- Name
  Smooth,                                 !- Roughness
  0.000810768,                            !- Thickness {m}
  0.0230187710627394,                     !- Conductivity {W/m-K}
  16.0184633739601,                       !- Density {kg/m3}
  1130.436;                               !- Specific Heat {J/kg-K}

OS:Material,
  {a19556b8-5e3b-41f3-ad88-dd4f8b5ba214}, !- Handle
  Compliance Insulation R0.10,            !- Name
  Smooth,                                 !- Roughness
  0.000405384,                            !- Thickness {m}
  0.0230187710627394,                     !- Conductivity {W/m-K}
  16.0184633739601,                       !- Density {kg/m3}
  1130.436;                               !- Specific Heat {J/kg-K}

OS:Material,
  {ab61e4dd-723c-48b9-bee9-e2a1c8699a8f}, !- Handle
  Concrete - Solid Grout - 115 lb/ft3 - 8 in., !- Name
  Smooth,                                 !- Roughness
  0.2032,                                 !- Thickness {m}
  1.31570449337553,                       !- Conductivity {W/m-K}
  1858.14175137938,                       !- Density {kg/m3}
  837.36;                                 !- Specific Heat {J/kg-K}

OS:Material,
  {2c4613cc-d6bf-4770-bf54-c5b1ead88e45}, !- Handle
  Compliance Insulation R13.99,           !- Name
  Smooth,                                 !- Roughness
  0.05671312,                             !- Thickness {m}
  0.0230187710627394,                     !- Conductivity {W/m-K}
  16.0184633739601,                       !- Density {kg/m3}
  1130.436;                               !- Specific Heat {J/kg-K}

OS:Material,
  {bd6ad0ad-675b-411b-a84c-83bf3a0331cb}, !- Handle
  Air - Metal Wall Framing - 16 or 24 in. OC, !- Name
  Smooth,                                 !- Roughness
  0.1397,                                 !- Thickness {m}
  1.22016793979183,                       !- Conductivity {W/m-K}
  1.28147706991681,                       !- Density {kg/m3}
  1004.832;                               !- Specific Heat {J/kg-K}

OS:Material,
  {5cd15520-28ae-4ef9-80bf-8145f938d981}, !- Handle
  Compliance Insulation R10.06,           !- Name
  Smooth,                                 !- Roughness
  0.040781732,                            !- Thickness {m}
  0.0230187710627394,                     !- Conductivity {W/m-K}
  16.0184633739601,                       !- Density {kg/m3}
  1130.436;                               !- Specific Heat {J/kg-K}

OS:Material,
  {62ab595d-ee73-4d28-ab48-9a43fdeabfb8}, !- Handle
  Compliance Insulation R2.00,            !- Name
  Smooth,                                 !- Roughness
  0.00810768,                             !- Thickness {m}
  0.0230187710627394,                     !- Conductivity {W/m-K}
  16.0184633739601,                       !- Density {kg/m3}
  1130.436;                               !- Specific Heat {J/kg-K}

OS:Material,
  {f70fda26-d038-4a16-8008-acf47f0ee636}, !- Handle
  Metal Standing Seam - 1/16 in.,         !- Name
  MediumRough,                            !- Roughness
  0.0015875,                              !- Thickness {m}
  2.21534037295537,                       !- Conductivity {W/m-K}
  7820.53418843482,                       !- Density {kg/m3}
  502.416,                                !- Specific Heat {J/kg-K}
  0.85,                                   !- Thermal Absorptance
  0.37,                                   !- Solar Absorptance
  0.85;                                   !- Visible Absorptance

OS:Material,
  {10ed35b1-cbaa-4f37-a2dd-fd54f2bbe799}, !- Handle
  Compliance Insulation R34.93,           !- Name
  Smooth,                                 !- Roughness
  0.141600682,                            !- Thickness {m}
  0.0230187710627394,                     !- Conductivity {W/m-K}
  16.0184633739601,                       !- Density {kg/m3}
  1130.436,                               !- Specific Heat {J/kg-K}
  0.9,                                    !- Thermal Absorptance
  0.7,                                    !- Solar Absorptance
  0.8;                                    !- Visible Absorptance

OS:Material,
  {d42d9ddf-547f-4029-8391-1abaaa28d4b2}, !- Handle
  Compliance Insulation R28.63,           !- Name
  Smooth,                                 !- Roughness
  0.11606149,                             !- Thickness {m}
  0.0230187710627394,                     !- Conductivity {W/m-K}
  16.0184633739601,                       !- Density {kg/m3}
  1130.436,                               !- Specific Heat {J/kg-K}
  0.9,                                    !- Thermal Absorptance
  0.7,                                    !- Solar Absorptance
  0.8;                                    !- Visible Absorptance

OS:Material,
  {86d03c2d-5bdb-4ef2-8e48-2696439e3929}, !- Handle
  Compliance Insulation R21.39,           !- Name
  MediumRough,                            !- Roughness
  0.086711536,                            !- Thickness {m}
  0.0230187710627394,                     !- Conductivity {W/m-K}
  16.0184633739601,                       !- Density {kg/m3}
  1130.436,                               !- Specific Heat {J/kg-K}
  0.9,                                    !- Thermal Absorptance
  0.7,                                    !- Solar Absorptance
  0.8;                                    !- Visible Absorptance

OS:Material,
  {e3018340-cd62-4e16-ae98-ef2d8d6bef85}, !- Handle
  Metal Deck - 1/16 in.,                  !- Name
  MediumRough,                            !- Roughness
  0.0015875,                              !- Thickness {m}
  45.3452482589303,                       !- Conductivity {W/m-K}
  7820.53418843482,                       !- Density {kg/m3}
  502.416,                                !- Specific Heat {J/kg-K}
  0.9,                                    !- Thermal Absorptance
  0.7,                                    !- Solar Absorptance
  0.8;                                    !- Visible Absorptance

OS:Construction,
  {7d32ae5c-3eb6-4710-bceb-eaff943b9aa0}, !- Handle
  MetalFrameWallU062,                     !- Name
  ,                                       !- Surface Rendering Name
  {ff64688a-ea48-41b9-aa88-8ad3a1bcf81f}, !- Layer 1
  {2c4613cc-d6bf-4770-bf54-c5b1ead88e45}, !- Layer 2
  {bd6ad0ad-675b-411b-a84c-83bf3a0331cb}, !- Layer 3
  {d2e6ef96-6d40-4208-9a07-7f4604ff412e}; !- Layer 4

OS:Construction,
  {13ef7292-d56c-482c-9cd8-e7c2f7f5b212}, !- Handle
  MetalFrameWallU069,                     !- Name
  ,                                       !- Surface Rendering Name
  {7c1a84ec-4f70-451d-b8ff-937a9abf6a0a}, !- Layer 1
  {5cd15520-28ae-4ef9-80bf-8145f938d981}, !- Layer 2
  {62ab595d-ee73-4d28-ab48-9a43fdeabfb8}, !- Layer 3
  {9c5c7849-8d40-46a4-9dd5-1fe540e65805}, !- Layer 4
  {a19556b8-5e3b-41f3-ad88-dd4f8b5ba214}, !- Layer 5
  {c065d120-eff7-46b0-9d58-c4394f6f5b60}, !- Layer 6
  {c667502f-a065-4a84-a5e1-fea091152466}; !- Layer 7

OS:Material,
  {7c1a84ec-4f70-451d-b8ff-937a9abf6a0a}, !- Handle
  Stucco - 7/8 in. 1,                     !- Name
  MediumRough,                            !- Roughness
  0.022352,                               !- Thickness {m}
  0.700947539880412,                      !- Conductivity {W/m-K}
  1855.09824333832,                       !- Density {kg/m3}
  837.36,                                 !- Specific Heat {J/kg-K}
  0.9,                                    !- Thermal Absorptance
  0.7,                                    !- Solar Absorptance