
OS:Version,
  {7fd53f66-4aff-4692-93f7-d1a9dad9461b}, !- Handle
  2.7.2;                                  !- Version Identifier

OS:SimulationControl,
  {75527c00-1491-48d3-aab4-d5594d3d7f7f}, !- Handle
  ,                                       !- Do Zone Sizing Calculation
  ,                                       !- Do System Sizing Calculation
  ,                                       !- Do Plant Sizing Calculation
  No,                                     !- Run Simulation for Sizing Periods
  Yes,                                    !- Run Simulation for Weather File Run Periods
  ,                                       !- Loads Convergence Tolerance Value
  ,                                       !- Temperature Convergence Tolerance Value {deltaC}
  FullExterior,                           !- Solar Distribution
  50;                                     !- Maximum Number of Warmup Days

OS:YearDescription,
  {205f6e7b-b0bb-4a3f-837a-de8c740aa336}, !- Handle
  2009,                                   !- Calendar Year
  ,                                       !- Day of Week for Start Day
  ;                                       !- Is Leap Year

OS:RunPeriod,
  {1a625369-5c49-4545-a6cd-1caf1832ca35}, !- Handle
  BLUE-CANYON_725845_CZ2010,              !- Name
  1,                                      !- Begin Month
  1,                                      !- Begin Day of Month
  12,                                     !- End Month
  31,                                     !- End Day of Month
  No,                                     !- Use Weather File Holidays and Special Days
  No,                                     !- Use Weather File Daylight Saving Period
  Yes,                                    !- Apply Weekend Holiday Rule
  ,                                       !- Use Weather File Rain Indicators
  ,                                       !- Use Weather File Snow Indicators
  ;                                       !- Number of Times Runperiod to be Repeated

OS:Site,
  {44b37cc9-9267-4040-9961-0da90116950d}, !- Handle
  BLUE-CANYON-AP Design_Conditions,       !- Name
  39.28,                                  !- Latitude {deg}
  -120.72,                                !- Longitude {deg}
  -8,                                     !- Time Zone {hr}
  1609.0392,                              !- Elevation {m}
  ;                                       !- Terrain

OS:SizingPeriod:DesignDay,
  {ec47abe6-767b-4b15-a460-6406bcf692a0}, !- Handle
  BLUE-CANYON-AP Ann Htg 99.6% Condns DB, !- Name
  -6,                                     !- Maximum Dry-Bulb Temperature {C}
  0,                                      !- Daily Dry-Bulb Temperature Range {deltaC}
  -6,                                     !- Humidity Indicating Conditions at Maximum Dry-Bulb
  83431,                                  !- Barometric Pressure {Pa}
  2.9,                                    !- Wind Speed {m/s}
  67,                                     !- Wind Direction {deg}
  0,                                      !- Sky Clearness
  0,                                      !- Rain Indicator
  0,                                      !- Snow Indicator
  21,                                     !- Day of Month
  1,                                      !- Month
  WinterDesignDay,                        !- Day Type
  0,                                      !- Daylight Saving Time Indicator
  Wetbulb,                                !- Humidity Indicating Type
  ,                                       !- Humidity Indicating Day Schedule Name
  DefaultMultipliers,                     !- Dry-Bulb Temperature Range Modifier Type
  ,                                       !- Dry-Bulb Temperature Range Modifier Schedule Name
  ASHRAEClearSky;                         !- Solar Model Indicator

OS:SizingPeriod:DesignDay,
  {39c47122-ad75-4547-bde4-68bbfa35ba70}, !- Handle
  BLUE-CANYON-AP Ann Clg 0.4% Condns DB=>MCWB, !- Name
  28.9,                                   !- Maximum Dry-Bulb Temperature {C}
  7.2,                                    !- Daily Dry-Bulb Temperature Range {deltaC}
  15.5,                                   !- Humidity Indicating Conditions at Maximum Dry-Bulb
  83431,                                  !- Barometric Pressure {Pa}
  3.2,                                    !- Wind Speed {m/s}
  270,                                    !- Wind Direction {deg}
  0,                                      !- Sky Clearness
  0,                                      !- Rain Indicator
  0,                                      !- Snow Indicator
  21,                                     !- Day of Month
  7,                                      !- Month
  SummerDesignDay,                        !- Day Type
  0,                                      !- Daylight Saving Time Indicator
  Wetbulb,                                !- Humidity Indicating Type
  ,                                       !- Humidity Indicating Day Schedule Name
  DefaultMultipliers,                     !- Dry-Bulb Temperature Range Modifier Type
  ,                                       !- Dry-Bulb Temperature Range Modifier Schedule Name
  ASHRAETau,                              !- Solar Model Indicator
  ,                                       !- Beam Solar Day Schedule Name
  ,                                       !- Diffuse Solar Day Schedule Name
  0.324,                                  !- ASHRAE Taub {dimensionless}
  2.564;                                  !- ASHRAE Taud {dimensionless}

OS:SizingPeriod:DesignDay,
  {f2cf4934-2d0c-4f1f-a64b-22ddb4cfa9ca}, !- Handle
  BLUE-CANYON-AP Ann Clg 0.4% Condns DP=>MCDB, !- Name
  22.5,                                   !- Maximum Dry-Bulb Temperature {C}
  7.2,                                    !- Daily Dry-Bulb Temperature Range {deltaC}
  13.2,                                   !- Humidity Indicating Conditions at Maximum Dry-Bulb
  83431,                                  !- Barometric Pressure {Pa}
  2.8,                                    !- Wind Speed {m/s}
  270,                                    !- Wind Direction {deg}
  0,                                      !- Sky Clearness
  0,                                      !- Rain Indicator
  0,                                      !- Snow Indicator
  21,                                     !- Day of Month
  7,                                      !- Month
  SummerDesignDay,                        !- Day Type
  0,                                      !- Daylight Saving Time Indicator
  Dewpoint,                               !- Humidity Indicating Type
  ,                                       !- Humidity Indicating Day Schedule Name
  DefaultMultipliers,                     !- Dry-Bulb Temperature Range Modifier Type
  ,                                       !- Dry-Bulb Temperature Range Modifier Schedule Name
  ASHRAETau,                              !- Solar Model Indicator
  ,                                       !- Beam Solar Day Schedule Name
  ,                                       !- Diffuse Solar Day Schedule Name
  0.324,                                  !- ASHRAE Taub {dimensionless}
  2.564;                                  !- ASHRAE Taud {dimensionless}

OS:SizingPeriod:DesignDay,
  {f45c23cb-8686-4da6-bdef-23ea0a7e0cd7}, !- Handle
  BLUE-CANYON-AP JUN Clg 0.4% Condns DB=>MCWB, !- Name
  29,                                     !- Maximum Dry-Bulb Temperature {C}
  0.9,                                    !- Daily Dry-Bulb Temperature Range {deltaC}
  16.1,                                   !- Humidity Indicating Conditions at Maximum Dry-Bulb
  83431,                                  !- Barometric Pressure {Pa}
  2.4,                                    !- Wind Speed {m/s}
  225,                                    !- Wind Direction {deg}
  0,                                      !- Sky Clearness
  0,                                      !- Rain Indicator
  0,                                      !- Snow Indicator
  21,                                     !- Day of Month
  6,                                      !- Month
  SummerDesignDay,                        !- Day Type
  0,                                      !- Daylight Saving Time Indicator
  Wetbulb,                                !- Humidity Indicating Type
  ,                                       !- Humidity Indicating Day Schedule Name
  DefaultMultipliers,                     !- Dry-Bulb Temperature Range Modifier Type
  ,                                       !- Dry-Bulb Temperature Range Modifier Schedule Name
  ASHRAETau,                              !- Solar Model Indicator
  ,                                       !- Beam Solar Day Schedule Name
  ,                                       !- Diffuse Solar Day Schedule Name
  0.307,                                  !- ASHRAE Taub {dimensionless}
  2.666;                                  !- ASHRAE Taud {dimensionless}

OS:SizingPeriod:DesignDay,
  {da31cbda-f780-4c28-b4be-4d61f83060bf}, !- Handle
  BLUE-CANYON-AP JUL Clg 0.4% Condns DB=>MCWB, !- Name
  31,                                     !- Maximum Dry-Bulb Temperature {C}
  7.2,                                    !- Daily Dry-Bulb Temperature Range {deltaC}
  15.5,                                   !- Humidity Indicating Conditions at Maximum Dry-Bulb
  83431,                                  !- Barometric Pressure {Pa}
  2.6,                                    !- Wind Speed {m/s}
  225,                                    !- Wind Direction {deg}
  0,                                      !- Sky Clearness
  0,                                      !- Rain Indicator
  0,                                      !- Snow Indicator
  21,                                     !- Day of Month
  7,                                      !- Month
  SummerDesignDay,                        !- Day Type
  0,                                      !- Daylight Saving Time Indicator
  Wetbulb,                                !- Humidity Indicating Type
  ,                                       !- Humidity Indicating Day Schedule Name
  DefaultMultipliers,                     !- Dry-Bulb Temperature Range Modifier Type
  ,                                       !- Dry-Bulb Temperature Range Modifier Schedule Name
  ASHRAETau,                              !- Solar Model Indicator
  ,                                       !- Beam Solar Day Schedule Name
  ,                                       !- Diffuse Solar Day Schedule Name
  0.324,                                  !- ASHRAE Taub {dimensionless}
  2.564;                                  !- ASHRAE Taud {dimensionless}

OS:SizingPeriod:DesignDay,
  {86f0cb00-9158-4331-b315-ff558691c598}, !- Handle
  BLUE-CANYON-AP AUG Clg 0.4% Condns DB=>MCWB, !- Name
  30.1,                                   !- Maximum Dry-Bulb Temperature {C}
  8,                                      !- Daily Dry-Bulb Temperature Range {deltaC}
  14.6,                                   !- Humidity Indicating Conditions at Maximum Dry-Bulb
  83431,                                  !- Barometric Pressure {Pa}
  3.1,                                    !- Wind Speed {m/s}
  270,                                    !- Wind Direction {deg}
  0,                                      !- Sky Clearness
  0,                                      !- Rain Indicator
  0,                                      !- Snow Indicator
  21,                                     !- Day of Month
  8,                                      !- Month
  SummerDesignDay,                        !- Day Type
  0,                                      !- Daylight Saving Time Indicator
  Wetbulb,                                !- Humidity Indicating Type
  ,                                       !- Humidity Indicating Day Schedule Name
  DefaultMultipliers,                     !- Dry-Bulb Temperature Range Modifier Type
  ,                                       !- Dry-Bulb Temperature Range Modifier Schedule Name
  ASHRAETau,                              !- Solar Model Indicator
  ,                                       !- Beam Solar Day Schedule Name
  ,                                       !- Diffuse Solar Day Schedule Name
  0.319,                                  !- ASHRAE Taub {dimensionless}
  2.602;                                  !- ASHRAE Taud {dimensionless}

OS:SizingPeriod:DesignDay,
  {df7bf0d1-7142-4afe-90c5-42e6fd8d376c}, !- Handle
  BLUE-CANYON-AP SEP Clg 0.4% Condns DB=>MCWB, !- Name
  28.6,                                   !- Maximum Dry-Bulb Temperature {C}
  6.5,                                    !- Daily Dry-Bulb Temperature Range {deltaC}
  13.4,                                   !- Humidity Indicating Conditions at Maximum Dry-Bulb
  83431,                                  !- Barometric Pressure {Pa}
  2.5,                                    !- Wind Speed {m/s}
  270,                                    !- Wind Direction {deg}
  0,                                      !- Sky Clearness
  0,                                      !- Rain Indicator
  0,                                      !- Snow Indicator
  21,                                     !- Day of Month
  9,                                      !- Month
  SummerDesignDay,                        !- Day Type
  0,                                      !- Daylight Saving Time Indicator
  Wetbulb,                                !- Humidity Indicating Type
  ,                                       !- Humidity Indicating Day Schedule Name
  DefaultMultipliers,                     !- Dry-Bulb Temperature Range Modifier Type
  ,                                       !- Dry-Bulb Temperature Range Modifier Schedule Name
  ASHRAETau,                              !- Solar Model Indicator
  ,                                       !- Beam Solar Day Schedule Name
  ,                                       !- Diffuse Solar Day Schedule Name
  0.303,                                  !- ASHRAE Taub {dimensionless}
  2.691;                                  !- ASHRAE Taud {dimensionless}

OS:SizingPeriod:DesignDay,
  {b9c45890-9a43-4884-b4d0-d03a4fca419a}, !- Handle
  BLUE-CANYON-AP OCT Clg 0.4% Condns DB=>MCWB, !- Name
  24.8,                                   !- Maximum Dry-Bulb Temperature {C}
  5.8,                                    !- Daily Dry-Bulb Temperature Range {deltaC}
  11,                                     !- Humidity Indicating Conditions at Maximum Dry-Bulb
  83431,                                  !- Barometric Pressure {Pa}
  3.1,                                    !- Wind Speed {m/s}
  22,                                     !- Wind Direction {deg}
  0,                                      !- Sky Clearness
  0,                                      !- Rain Indicator
  0,                                      !- Snow Indicator
  21,                                     !- Day of Month
  10,                                     !- Month
  SummerDesignDay,                        !- Day Type
  0,                                      !- Daylight Saving Time Indicator
  Wetbulb,                                !- Humidity Indicating Type
  ,                                       !- Humidity Indicating Day Schedule Name
  DefaultMultipliers,                     !- Dry-Bulb Temperature Range Modifier Type
  ,                                       !- Dry-Bulb Temperature Range Modifier Schedule Name
  ASHRAETau,                              !- Solar Model Indicator
  ,                                       !- Beam Solar Day Schedule Name
  ,                                       !- Diffuse Solar Day Schedule Name
  0.291,                                  !- ASHRAE Taub {dimensionless}
  2.655;                                  !- ASHRAE Taud {dimensionless}

OS:SizingPeriod:DesignDay,
  {d0045cd8-0893-4d36-ad8b-0206659cb91d}, !- Handle
  BLUE-CANYON-AP NOV Clg 0.4% Condns DB=>MCWB, !- Name
  20.1,                                   !- Maximum Dry-Bulb Temperature {C}
  4.5,                                    !- Daily Dry-Bulb Temperature Range {deltaC}
  8.4,                                    !- Humidity Indicating Conditions at Maximum Dry-Bulb
  83431,                                  !- Barometric Pressure {Pa}
  2,                                      !- Wind Speed {m/s}
  67,                                     !- Wind Direction {deg}
  0,                                      !- Sky Clearness
  0,                                      !- Rain Indicator
  0,                                      !- Snow Indicator
  21,                                     !- Day of Month
  11,                                     !- Month
  SummerDesignDay,                        !- Day Type
  0,                                      !- Daylight Saving Time Indicator
  Wetbulb,                                !- Humidity Indicating Type
  ,                                       !- Humidity Indicating Day Schedule Name
  DefaultMultipliers,                     !- Dry-Bulb Temperature Range Modifier Type
  ,                                       !- Dry-Bulb Temperature Range Modifier Schedule Name
  ASHRAETau,                              !- Solar Model Indicator
  ,                                       !- Beam Solar Day Schedule Name
  ,                                       !- Diffuse Solar Day Schedule Name
  0.269,                                  !- ASHRAE Taub {dimensionless}
  2.764;                                  !- ASHRAE Taud {dimensionless}

OS:WeatherFile,
  {e768d67e-6e2e-460c-9c3a-e7a1228767ac}, !- Handle
  BLUE-CANYON-AP,                         !- City
  -,                                      !- State Province Region
  USA,                                    !- Country
  Custom-725845,                          !- Data Source
  725845,                                 !- WMO Number
  39.3,                                   !- Latitude {deg}
  -120.72,                                !- Longitude {deg}
  -8,                                     !- Time Zone {hr}
  1609,                                   !- Elevation {m}
  file:///C:/Users/agoyal/Documents/CBECC-Com 2019 Data/EPW/BLUE-CANYON_725845_CZ2010.epw, !- Url
  BA565E13;                               !- Checksum

OS:Sizing:Parameters,
  {2235b5b2-fbec-49e8-bba5-8855ea49bb71}, !- Handle
  1,                                      !- Heating Sizing Factor
  1;                                      !- Cooling Sizing Factor

OS:Material,
  {5f455694-7cc3-4eb8-8753-4bba1fd8a3cd}, !- Handle
  Gypsum Board - 1/2 in.,                 !- Name
  Smooth,                                 !- Roughness
  0.0127,                                 !- Thickness {m}
  0.158656446866265,                      !- Conductivity {W/m-K}
  640.738534958406,                       !- Density {kg/m3}
  1130.436,                               !- Specific Heat {J/kg-K}
  0.9,                                    !- Thermal Absorptance
  0.7,                                    !- Solar Absorptance
  0.8;                                    !- Visible Absorptance

OS:Material,
  {c1025f4d-45ac-40e9-a720-d33d72584691}, !- Handle
  Gypsum Board - 5/8 in.,                 !- Name
  MediumRough,                            !- Roughness
  0.016002,                               !- Thickness {m}
  0.158656446866265,                      !- Conductivity {W/m-K}
  640.738534958406,                       !- Density {kg/m3}
  1130.436,                               !- Specific Heat {J/kg-K}
  0.9,                                    !- Thermal Absorptance
  0.7,                                    !- Solar Absorptance
  0.8;                                    !- Visible Absorptance

OS:Material,
  {2a071f8f-60f5-4a72-ab40-314d187d259b}, !- Handle
  Stucco - 7/8 in.,                       !- Name
  MediumRough,                            !- Roughness
  0.022352,                               !- Thickness {m}
  0.700947539880412,                      !- Conductivity {W/m-K}
  1855.09824333832,                       !- Density {kg/m3}
  837.36,                                 !- Specific Heat {J/kg-K}
  0.9,                                    !- Thermal Absorptance
  0.7,                                    !- Solar Absorptance
  0.8;                                    !- Visible Absorptance

OS:Material,
  {0cc5a5a5-f2f3-4f2c-a081-670991833787}, !- Handle
  Carpet - 3/4 in.,                       !- Name
  Smooth,                                 !- Roughness
  0.01905,                                !- Thickness {m}
  0.0455183217255675,                     !- Conductivity {W/m-K}
  288.332340731283,                       !- Density {kg/m3}
  1381.644,                               !- Specific Heat {J/kg-K}
  0.9,                                    !- Thermal Absorptance
  0.7,                                    !- Solar Absorptance
  0.8;                                    !- Visible Absorptance

OS:Material,
  {beb8d23b-9f8f-4759-a348-6c3d1463fcbf}, !- Handle
  Plywood - 5/8 in.,                      !- Name
  Smooth,                                 !- Roughness
  0.016002,                               !- Thickness {m}
  0.115440002246971,                      !- Conductivity {W/m-K}
  480.553901218804,                       !- Density {kg/m3}
  1884.06;                                !- Specific Heat {J/kg-K}

OS:Material,
  {a6f4dc15-43e3-43c4-bd58-a31f6dc92545}, !- Handle
  Concrete - 140 lb/ft3 - 4 in.,          !- Name
  Smooth,                                 !- Roughness
  0.1016,                                 !- Thickness {m}
  1.95140333633374,                       !- Conductivity {W/m-K}
  2239.06081041215,                       !- Density {kg/m3}
  921.096;                                !- Specific Heat {J/kg-K}

OS:Material,
  {bc164c12-d481-47c2-9243-1512689768bd}, !- Handle
  Compliance Insulation R0.20,            !- Name
  Smooth,                                 !- Roughness
  0.000810768,                            !- Thickness {m}
  0.0230187710627394,                     !- Conductivity {W/m-K}
  16.0184633739601,                       !- Density {kg/m3}
  1130.436;                               !- Specific Heat {J/kg-K}

OS:Material,
  {18579331-a47b-420c-a6ea-149e741d135b}, !- Handle
  Compliance Insulation R0.10,            !- Name
  Smooth,                                 !- Roughness
  0.000405384,                            !- Thickness {m}
  0.0230187710627394,                     !- Conductivity {W/m-K}
  16.0184633739601,                       !- Density {kg/m3}
  1130.436;                               !- Specific Heat {J/kg-K}

OS:Material,
  {291359c4-f1e0-4158-8122-d489cd29dde5}, !- Handle
  Concrete - Solid Grout - 115 lb/ft3 - 8 in., !- Name
  Smooth,                                 !- Roughness
  0.2032,                                 !- Thickness {m}
  1.31570449337553,                       !- Conductivity {W/m-K}
  1858.14175137938,                       !- Density {kg/m3}
  837.36;                                 !- Specific Heat {J/kg-K}

OS:Material,
  {4f53ab25-d7f2-4764-8dea-12ab4b0581d7}, !- Handle
  Compliance Insulation R13.99,           !- Name
  Smooth,                                 !- Roughness
  0.05671312,                             !- Thickness {m}
  0.0230187710627394,                     !- Conductivity {W/m-K}
  16.0184633739601,                       !- Density {kg/m3}
  1130.436;                               !- Specific Heat {J/kg-K}

OS:Material,
  {93f9c362-42c1-4e96-a93f-6d9e7f361b7c}, !- Handle
  Air - Metal Wall Framing - 16 or 24 in. OC, !- Name
  Smooth,                                 !- Roughness
  0.1397,                                 !- Thickness {m}
  1.22016793979183,                       !- Conductivity {W/m-K}
  1.28147706991681,                       !- Density {kg/m3}
  1004.832;                               !- Specific Heat {J/kg-K}

OS:Material,
  {f5448875-6e12-4bfc-a2c8-db3ae7fff6e3}, !- Handle
  Compliance Insulation R10.06,           !- Name
  Smooth,                                 !- Roughness
  0.040781732,                            !- Thickness {m}
  0.0230187710627394,                     !- Conductivity {W/m-K}
  16.0184633739601,                       !- Density {kg/m3}
  1130.436;                               !- Specific Heat {J/kg-K}

OS:Material,
  {de1c9c9b-00cd-414e-b5d8-127e869fa45a}, !- Handle
  Compliance Insulation R2.00,            !- Name
  Smooth,                                 !- Roughness
  0.00810768,                             !- Thickness {m}
  0.0230187710627394,                     !- Conductivity {W/m-K}
  16.0184633739601,                       !- Density {kg/m3}
  1130.436;                               !- Specific Heat {J/kg-K}

OS:Material,
  {111704f0-bfa1-4991-901d-c39fb8c09382}, !- Handle
  Metal Standing Seam - 1/16 in.,         !- Name
  MediumRough,                            !- Roughness
  0.0015875,                              !- Thickness {m}
  2.21534037295537,                       !- Conductivity {W/m-K}
  7820.53418843482,                       !- Density {kg/m3}
  502.416,                                !- Specific Heat {J/kg-K}
  0.85,                                   !- Thermal Absorptance
  0.37,                                   !- Solar Absorptance
  0.85;                                   !- Visible Absorptance

OS:Material,
  {dd268f92-900e-4305-8fbf-3be4fa860100}, !- Handle
  Compliance Insulation R34.93,           !- Name
  Smooth,                                 !- Roughness
  0.141600682,                            !- Thickness {m}
  0.0230187710627394,                     !- Conductivity {W/m-K}
  16.0184633739601,                       !- Density {kg/m3}
  1130.436,                               !- Specific Heat {J/kg-K}
  0.9,                                    !- Thermal Absorptance
  0.7,                                    !- Solar Absorptance
  0.8;                                    !- Visible Absorptance

OS:Material,
  {012e92d6-81b5-40c5-a4ad-4aeba7fc82ef}, !- Handle
  Compliance Insulation R28.63,           !- Name
  Smooth,                                 !- Roughness
  0.11606149,                             !- Thickness {m}
  0.0230187710627394,                     !- Conductivity {W/m-K}
  16.0184633739601,                       !- Density {kg/m3}
  1130.436,                               !- Specific Heat {J/kg-K}
  0.9,                                    !- Thermal Absorptance
  0.7,                                    !- Solar Absorptance
  0.8;                                    !- Visible Absorptance

OS:Material,
  {f203337d-eaaf-418a-ab7a-3f727e264265}, !- Handle
  Compliance Insulation R21.39,           !- Name
  MediumRough,                            !- Roughness
  0.086711536,                            !- Thickness {m}
  0.0230187710627394,                     !- Conductivity {W/m-K}
  16.0184633739601,                       !- Density {kg/m3}
  1130.436,                               !- Specific Heat {J/kg-K}
  0.9,                                    !- Thermal Absorptance
  0.7,                                    !- Solar Absorptance
  0.8;                                    !- Visible Absorptance

OS:Material,
  {0d9c4c53-2bc7-4f7f-9a17-b5d71f20298b}, !- Handle
  Metal Deck - 1/16 in.,                  !- Name
  MediumRough,                            !- Roughness
  0.0015875,                              !- Thickness {m}
  45.3452482589303,                       !- Conductivity {W/m-K}
  7820.53418843482,                       !- Density {kg/m3}
  502.416,                                !- Specific Heat {J/kg-K}
  0.9,                                    !- Thermal Absorptance
  0.7,                                    !- Solar Absorptance
  0.8;                                    !- Visible Absorptance

OS:Construction,
  {0e1ff8ae-9cb9-458c-bdce-5675ca8d96d7}, !- Handle
  MetalFrameWallU062,                     !- Name
  ,                                       !- Surface Rendering Name
  {2a071f8f-60f5-4a72-ab40-314d187d259b}, !- Layer 1
  {4f53ab25-d7f2-4764-8dea-12ab4b0581d7}, !- Layer 2
  {93f9c362-42c1-4e96-a93f-6d9e7f361b7c}, !- Layer 3
  {5f455694-7cc3-4eb8-8753-4bba1fd8a3cd}; !- Layer 4

OS:Construction,
  {f2c8b740-1432-458e-a3b2-fbcfe72d1a85}, !- Handle
  MetalFrameWallU069,                     !- Name
  ,                                       !- Surface Rendering Name
  {26457eb9-fc2c-420d-ba1b-86aaec8522b5}, !- Layer 1
  {f5448875-6e12-4bfc-a2c8-db3ae7fff6e3}, !- Layer 2
  {de1c9c9b-00cd-414e-b5d8-127e869fa45a}, !- Layer 3
  {bc164c12-d481-47c2-9243-1512689768bd}, !- Layer 4
  {18579331-a47b-420c-a6ea-149e741d135b}, !- Layer 5
  {582558d4-b38a-40f3-9416-46f4623e8e72}, !- Layer 6
  {5d3671ea-e83e-4844-9197-652a256cbdc4}; !- Layer 7

OS:Material,
  {26457eb9-fc2c-420d-ba1b-86aaec8522b5}, !- Handle
  Stucco - 7/8 in. 1,                     !- Name
  MediumRough,                            !- Roughness
  0.022352,                               !- Thickness {m}
  0.700947539880412,                      !- Conductivity {W/m-K}
  1855.09824333832,                       !- Density {kg/m3}
  837.36,                                 !- Specific Heat {J/kg-K}
  0.9,                                    !- Thermal Absorptance
  0.7,                                    !- Solar Absorptance
  0.8;                                    !- Visible Absorptance

OS:Material,
  {582558d4-b38a-40f3-9416-46f4623e8e72}, !- Handle
  Air - Metal Wall Framing - 16 or 24 in. OC 1, !- Name
  Smooth,                                 !- Roughness
  0.1397,                                 !- Thickness {m}
  1.22016793979183,                       !- Conductivity {W/m-K}
  1.28147706991681,                       !- Density {kg/m3}
  1004.832;                               !- Specific Heat {J/kg-K}

OS:Material,
  {5d3671ea-e83e-4844-9197-652a256cbdc4}, !- Handle
  Gypsum Board - 1/2 in. 1,               !- Name