
OS:Version,
  {6aa88b18-8d83-4cfb-9069-3b2bad50308a}, !- Handle
  2.7.2;                                  !- Version Identifier

OS:SimulationControl,
  {2e47ab08-cf3d-4ba3-b46f-395e6cad52c6}, !- Handle
  ,                                       !- Do Zone Sizing Calculation
  ,                                       !- Do System Sizing Calculation
  ,                                       !- Do Plant Sizing Calculation
  No,                                     !- Run Simulation for Sizing Periods
  Yes,                                    !- Run Simulation for Weather File Run Periods
  ,                                       !- Loads Convergence Tolerance Value
  ,                                       !- Temperature Convergence Tolerance Value {deltaC}
  FullExterior,                           !- Solar Distribution
  50;                                     !- Maximum Number of Warmup Days

OS:YearDescription,
  {30d47694-a4c4-4cf5-9b1a-d04c06ad5673}, !- Handle
  2009,                                   !- Calendar Year
  ,                                       !- Day of Week for Start Day
  ;                                       !- Is Leap Year

OS:RunPeriod,
  {45bd65df-e1fa-45ee-91ff-dd11893069b5}, !- Handle
  RED-BLUFF_725910_CZ2010,                !- Name
  1,                                      !- Begin Month
  1,                                      !- Begin Day of Month
  12,                                     !- End Month
  31,                                     !- End Day of Month
  No,                                     !- Use Weather File Holidays and Special Days
  No,                                     !- Use Weather File Daylight Saving Period
  Yes,                                    !- Apply Weekend Holiday Rule
  ,                                       !- Use Weather File Rain Indicators
  ,                                       !- Use Weather File Snow Indicators
  ;                                       !- Number of Times Runperiod to be Repeated

OS:Site,
  {1ff40bb6-e51d-4d57-81af-15a5f62be5e1}, !- Handle
  RED-BLUFF-MUNICIPAL-ARPT Design_Conditions, !- Name
  40.13,                                  !- Latitude {deg}
  -122.25,                                !- Longitude {deg}
  -8,                                     !- Time Zone {hr}
  106.0704,                               !- Elevation {m}
  ;                                       !- Terrain

OS:SizingPeriod:DesignDay,
  {e84600cc-665b-4bce-b4b1-bf0f1986c184}, !- Handle
  RED-BLUFF-MUNICIPAL-ARPT Ann Htg 99.6% Condns DB, !- Name
  -1,                                     !- Maximum Dry-Bulb Temperature {C}
  0,                                      !- Daily Dry-Bulb Temperature Range {deltaC}
  -1,                                     !- Humidity Indicating Conditions at Maximum Dry-Bulb
  100058,                                 !- Barometric Pressure {Pa}
  2.2,                                    !- Wind Speed {m/s}
  315,                                    !- Wind Direction {deg}
  0,                                      !- Sky Clearness
  0,                                      !- Rain Indicator
  0,                                      !- Snow Indicator
  21,                                     !- Day of Month
  1,                                      !- Month
  WinterDesignDay,                        !- Day Type
  0,                                      !- Daylight Saving Time Indicator
  Wetbulb,                                !- Humidity Indicating Type
  ,                                       !- Humidity Indicating Day Schedule Name
  DefaultMultipliers,                     !- Dry-Bulb Temperature Range Modifier Type
  ,                                       !- Dry-Bulb Temperature Range Modifier Schedule Name
  ASHRAEClearSky;                         !- Solar Model Indicator

OS:SizingPeriod:DesignDay,
  {89f5b9f5-7af2-4adb-b81e-a758b75b2da7}, !- Handle
  RED-BLUFF-MUNICIPAL-ARPT Ann Clg 0.4% Condns DB=>MCWB, !- Name
  40.7,                                   !- Maximum Dry-Bulb Temperature {C}
  16.9,                                   !- Daily Dry-Bulb Temperature Range {deltaC}
  20.5,                                   !- Humidity Indicating Conditions at Maximum Dry-Bulb
  100058,                                 !- Barometric Pressure {Pa}
  3.5,                                    !- Wind Speed {m/s}
  0,                                      !- Wind Direction {deg}
  0,                                      !- Sky Clearness
  0,                                      !- Rain Indicator
  0,                                      !- Snow Indicator
  21,                                     !- Day of Month
  7,                                      !- Month
  SummerDesignDay,                        !- Day Type
  0,                                      !- Daylight Saving Time Indicator
  Wetbulb,                                !- Humidity Indicating Type
  ,                                       !- Humidity Indicating Day Schedule Name
  DefaultMultipliers,                     !- Dry-Bulb Temperature Range Modifier Type
  ,                                       !- Dry-Bulb Temperature Range Modifier Schedule Name
  ASHRAETau,                              !- Solar Model Indicator
  ,                                       !- Beam Solar Day Schedule Name
  ,                                       !- Diffuse Solar Day Schedule Name
  0.364,                                  !- ASHRAE Taub {dimensionless}
  2.504;                                  !- ASHRAE Taud {dimensionless}

OS:SizingPeriod:DesignDay,
  {3c7e4ef4-744f-43a5-9ec6-c9a52d1496e1}, !- Handle
  RED-BLUFF-MUNICIPAL-ARPT Ann Clg 0.4% Condns DP=>MCDB, !- Name
  27.5,                                   !- Maximum Dry-Bulb Temperature {C}
  16.9,                                   !- Daily Dry-Bulb Temperature Range {deltaC}
  18.9,                                   !- Humidity Indicating Conditions at Maximum Dry-Bulb
  100058,                                 !- Barometric Pressure {Pa}
  4.1,                                    !- Wind Speed {m/s}
  0,                                      !- Wind Direction {deg}
  0,                                      !- Sky Clearness
  0,                                      !- Rain Indicator
  0,                                      !- Snow Indicator
  21,                                     !- Day of Month
  7,                                      !- Month
  SummerDesignDay,                        !- Day Type
  0,                                      !- Daylight Saving Time Indicator
  Dewpoint,                               !- Humidity Indicating Type
  ,                                       !- Humidity Indicating Day Schedule Name
  DefaultMultipliers,                     !- Dry-Bulb Temperature Range Modifier Type
  ,                                       !- Dry-Bulb Temperature Range Modifier Schedule Name
  ASHRAETau,                              !- Solar Model Indicator
  ,                                       !- Beam Solar Day Schedule Name
  ,                                       !- Diffuse Solar Day Schedule Name
  0.364,                                  !- ASHRAE Taub {dimensionless}
  2.504;                                  !- ASHRAE Taud {dimensionless}

OS:SizingPeriod:DesignDay,
  {9cb8b49d-73fa-44d0-b287-c6df8da4226e}, !- Handle
  RED-BLUFF-MUNICIPAL-ARPT JUN Clg 0.4% Condns DB=>MCWB, !- Name
  41.2,                                   !- Maximum Dry-Bulb Temperature {C}
  15.7,                                   !- Daily Dry-Bulb Temperature Range {deltaC}
  19.4,                                   !- Humidity Indicating Conditions at Maximum Dry-Bulb
  100058,                                 !- Barometric Pressure {Pa}
  2.5,                                    !- Wind Speed {m/s}
  0,                                      !- Wind Direction {deg}
  0,                                      !- Sky Clearness
  0,                                      !- Rain Indicator
  0,                                      !- Snow Indicator
  21,                                     !- Day of Month
  6,                                      !- Month
  SummerDesignDay,                        !- Day Type
  0,                                      !- Daylight Saving Time Indicator
  Wetbulb,                                !- Humidity Indicating Type
  ,                                       !- Humidity Indicating Day Schedule Name
  DefaultMultipliers,                     !- Dry-Bulb Temperature Range Modifier Type
  ,                                       !- Dry-Bulb Temperature Range Modifier Schedule Name
  ASHRAETau,                              !- Solar Model Indicator
  ,                                       !- Beam Solar Day Schedule Name
  ,                                       !- Diffuse Solar Day Schedule Name
  0.349,                                  !- ASHRAE Taub {dimensionless}
  2.569;                                  !- ASHRAE Taud {dimensionless}

OS:SizingPeriod:DesignDay,
  {8390632a-5eff-4414-83eb-f7cb77a4964f}, !- Handle
  RED-BLUFF-MUNICIPAL-ARPT JUL Clg 0.4% Condns DB=>MCWB, !- Name
  44,                                     !- Maximum Dry-Bulb Temperature {C}
  16.9,                                   !- Daily Dry-Bulb Temperature Range {deltaC}
  21.3,                                   !- Humidity Indicating Conditions at Maximum Dry-Bulb
  100058,                                 !- Barometric Pressure {Pa}
  2.7,                                    !- Wind Speed {m/s}
  180,                                    !- Wind Direction {deg}
  0,                                      !- Sky Clearness
  0,                                      !- Rain Indicator
  0,                                      !- Snow Indicator
  21,                                     !- Day of Month
  7,                                      !- Month
  SummerDesignDay,                        !- Day Type
  0,                                      !- Daylight Saving Time Indicator
  Wetbulb,                                !- Humidity Indicating Type
  ,                                       !- Humidity Indicating Day Schedule Name
  DefaultMultipliers,                     !- Dry-Bulb Temperature Range Modifier Type
  ,                                       !- Dry-Bulb Temperature Range Modifier Schedule Name
  ASHRAETau,                              !- Solar Model Indicator
  ,                                       !- Beam Solar Day Schedule Name
  ,                                       !- Diffuse Solar Day Schedule Name
  0.364,                                  !- ASHRAE Taub {dimensionless}
  2.504;                                  !- ASHRAE Taud {dimensionless}

OS:SizingPeriod:DesignDay,
  {cd129c68-305c-4574-89bb-e1cc99771ea2}, !- Handle
  RED-BLUFF-MUNICIPAL-ARPT AUG Clg 0.4% Condns DB=>MCWB, !- Name
  42,                                     !- Maximum Dry-Bulb Temperature {C}
  16.4,                                   !- Daily Dry-Bulb Temperature Range {deltaC}
  22.6,                                   !- Humidity Indicating Conditions at Maximum Dry-Bulb
  100058,                                 !- Barometric Pressure {Pa}
  3.4,                                    !- Wind Speed {m/s}
  180,                                    !- Wind Direction {deg}
  0,                                      !- Sky Clearness
  0,                                      !- Rain Indicator
  0,                                      !- Snow Indicator
  21,                                     !- Day of Month
  8,                                      !- Month
  SummerDesignDay,                        !- Day Type
  0,                                      !- Daylight Saving Time Indicator
  Wetbulb,                                !- Humidity Indicating Type
  ,                                       !- Humidity Indicating Day Schedule Name
  DefaultMultipliers,                     !- Dry-Bulb Temperature Range Modifier Type
  ,                                       !- Dry-Bulb Temperature Range Modifier Schedule Name
  ASHRAETau,                              !- Solar Model Indicator
  ,                                       !- Beam Solar Day Schedule Name
  ,                                       !- Diffuse Solar Day Schedule Name
  0.368,                                  !- ASHRAE Taub {dimensionless}
  2.463;                                  !- ASHRAE Taud {dimensionless}

OS:SizingPeriod:DesignDay,
  {66fc85b2-31c0-4750-8c93-6da3c148127b}, !- Handle
  RED-BLUFF-MUNICIPAL-ARPT SEP Clg 0.4% Condns DB=>MCWB, !- Name
  39.5,                                   !- Maximum Dry-Bulb Temperature {C}
  17.7,                                   !- Daily Dry-Bulb Temperature Range {deltaC}
  16.9,                                   !- Humidity Indicating Conditions at Maximum Dry-Bulb
  100058,                                 !- Barometric Pressure {Pa}
  0,                                      !- Wind Speed {m/s}
  180,                                    !- Wind Direction {deg}
  0,                                      !- Sky Clearness
  0,                                      !- Rain Indicator
  0,                                      !- Snow Indicator
  21,                                     !- Day of Month
  9,                                      !- Month
  SummerDesignDay,                        !- Day Type
  0,                                      !- Daylight Saving Time Indicator
  Wetbulb,                                !- Humidity Indicating Type
  ,                                       !- Humidity Indicating Day Schedule Name
  DefaultMultipliers,                     !- Dry-Bulb Temperature Range Modifier Type
  ,                                       !- Dry-Bulb Temperature Range Modifier Schedule Name
  ASHRAETau,                              !- Solar Model Indicator
  ,                                       !- Beam Solar Day Schedule Name
  ,                                       !- Diffuse Solar Day Schedule Name
  0.358,                                  !- ASHRAE Taub {dimensionless}
  2.489;                                  !- ASHRAE Taud {dimensionless}

OS:SizingPeriod:DesignDay,
  {4500f9f9-8039-428f-921d-f7ea829914ef}, !- Handle
  RED-BLUFF-MUNICIPAL-ARPT OCT Clg 0.4% Condns DB=>MCWB, !- Name
  35,                                     !- Maximum Dry-Bulb Temperature {C}
  14.8,                                   !- Daily Dry-Bulb Temperature Range {deltaC}
  17.7,                                   !- Humidity Indicating Conditions at Maximum Dry-Bulb
  100058,                                 !- Barometric Pressure {Pa}
  4.6,                                    !- Wind Speed {m/s}
  112,                                    !- Wind Direction {deg}
  0,                                      !- Sky Clearness
  0,                                      !- Rain Indicator
  0,                                      !- Snow Indicator
  21,                                     !- Day of Month
  10,                                     !- Month
  SummerDesignDay,                        !- Day Type
  0,                                      !- Daylight Saving Time Indicator
  Wetbulb,                                !- Humidity Indicating Type
  ,                                       !- Humidity Indicating Day Schedule Name
  DefaultMultipliers,                     !- Dry-Bulb Temperature Range Modifier Type
  ,                                       !- Dry-Bulb Temperature Range Modifier Schedule Name
  ASHRAETau,                              !- Solar Model Indicator
  ,                                       !- Beam Solar Day Schedule Name
  ,                                       !- Diffuse Solar Day Schedule Name
  0.332,                                  !- ASHRAE Taub {dimensionless}
  2.567;                                  !- ASHRAE Taud {dimensionless}

OS:SizingPeriod:DesignDay,
  {7009ef28-2227-4174-8b60-0a6a86851a35}, !- Handle
  RED-BLUFF-MUNICIPAL-ARPT NOV Clg 0.4% Condns DB=>MCWB, !- Name
  26.7,                                   !- Maximum Dry-Bulb Temperature {C}
  10.8,                                   !- Daily Dry-Bulb Temperature Range {deltaC}
  15.1,                                   !- Humidity Indicating Conditions at Maximum Dry-Bulb
  100058,                                 !- Barometric Pressure {Pa}
  1.9,                                    !- Wind Speed {m/s}
  0,                                      !- Wind Direction {deg}
  0,                                      !- Sky Clearness
  0,                                      !- Rain Indicator
  0,                                      !- Snow Indicator
  21,                                     !- Day of Month
  11,                                     !- Month
  SummerDesignDay,                        !- Day Type
  0,                                      !- Daylight Saving Time Indicator
  Wetbulb,                                !- Humidity Indicating Type
  ,                                       !- Humidity Indicating Day Schedule Name
  DefaultMultipliers,                     !- Dry-Bulb Temperature Range Modifier Type
  ,                                       !- Dry-Bulb Temperature Range Modifier Schedule Name
  ASHRAETau,                              !- Solar Model Indicator
  ,                                       !- Beam Solar Day Schedule Name
  ,                                       !- Diffuse Solar Day Schedule Name
  0.312,                                  !- ASHRAE Taub {dimensionless}
  2.648;                                  !- ASHRAE Taud {dimensionless}

OS:WeatherFile,
  {5d829f2d-e728-49be-9d4f-c6c1b91f492a}, !- Handle
  RED-BLUFF-MUNI-AP,                      !- City
  -,                                      !- State Province Region
  USA,                                    !- Country
  Custom-725910,                          !- Data Source
  725910,                                 !- WMO Number
  40.15,                                  !- Latitude {deg}
  -122.25,                                !- Longitude {deg}
  -8,                                     !- Time Zone {hr}
  106,                                    !- Elevation {m}
  file:///C:/Users/agoyal/Documents/CBECC-Com 2019 Data/EPW/RED-BLUFF_725910_CZ2010.epw, !- Url
  820A103C;                               !- Checksum

OS:Sizing:Parameters,
  {70986d53-5cad-4b96-a67d-06c5b9e2d0b3}, !- Handle
  1,                                      !- Heating Sizing Factor
  1;                                      !- Cooling Sizing Factor

OS:Material,
  {bbe61a82-0315-4d15-b1ed-b397fabfbf38}, !- Handle
  Gypsum Board - 1/2 in.,                 !- Name
  Smooth,                                 !- Roughness
  0.0127,                                 !- Thickness {m}
  0.158656446866265,                      !- Conductivity {W/m-K}
  640.738534958406,                       !- Density {kg/m3}
  1130.436,                               !- Specific Heat {J/kg-K}
  0.9,                                    !- Thermal Absorptance
  0.7,                                    !- Solar Absorptance
  0.8;                                    !- Visible Absorptance

OS:Material,
  {a172409a-5610-40ec-b66f-087f65fa6601}, !- Handle
  Gypsum Board - 5/8 in.,                 !- Name
  MediumRough,                            !- Roughness
  0.016002,                               !- Thickness {m}
  0.158656446866265,                      !- Conductivity {W/m-K}
  640.738534958406,                       !- Density {kg/m3}
  1130.436,                               !- Specific Heat {J/kg-K}
  0.9,                                    !- Thermal Absorptance
  0.7,                                    !- Solar Absorptance
  0.8;                                    !- Visible Absorptance

OS:Material,
  {3f3a77fd-d0ba-44ba-944f-419a63b6b23c}, !- Handle
  Stucco - 7/8 in.,                       !- Name
  MediumRough,                            !- Roughness
  0.022352,                               !- Thickness {m}
  0.700947539880412,                      !- Conductivity {W/m-K}
  1855.09824333832,                       !- Density {kg/m3}
  837.36,                                 !- Specific Heat {J/kg-K}
  0.9,                                    !- Thermal Absorptance
  0.7,                                    !- Solar Absorptance
  0.8;                                    !- Visible Absorptance

OS:Material,
  {b519b66f-85ec-4c51-9db4-98c72107f95c}, !- Handle
  Carpet - 3/4 in.,                       !- Name
  Smooth,                                 !- Roughness
  0.01905,                                !- Thickness {m}
  0.0455183217255675,                     !- Conductivity {W/m-K}
  288.332340731283,                       !- Density {kg/m3}
  1381.644,                               !- Specific Heat {J/kg-K}
  0.9,                                    !- Thermal Absorptance
  0.7,                                    !- Solar Absorptance
  0.8;                                    !- Visible Absorptance

OS:Material,
  {b4899fa5-8339-4e1e-88b7-6bcd1a3f7008}, !- Handle
  Plywood - 5/8 in.,                      !- Name
  Smooth,                                 !- Roughness
  0.016002,                               !- Thickness {m}
  0.115440002246971,                      !- Conductivity {W/m-K}
  480.553901218804,                       !- Density {kg/m3}
  1884.06;                                !- Specific Heat {J/kg-K}

OS:Material,
  {9270702e-4f1f-46d3-90ce-9f874122c4bd}, !- Handle
  Concrete - 140 lb/ft3 - 4 in.,          !- Name
  Smooth,                                 !- Roughness
  0.1016,                                 !- Thickness {m}
  1.95140333633374,                       !- Conductivity {W/m-K}
  2239.06081041215,                       !- Density {kg/m3}
  921.096;                                !- Specific Heat {J/kg-K}

OS:Material,
  {84d0049b-cdb8-45ad-8540-99203615d25d}, !- Handle
  Compliance Insulation R0.20,            !- Name
  Smooth,                                 !- Roughness
  0.000810768,                            !- Thickness {m}
  0.0230187710627394,                     !- Conductivity {W/m-K}
  16.0184633739601,                       !- Density {kg/m3}
  1130.436;                               !- Specific Heat {J/kg-K}

OS:Material,
  {5b9d5937-39f7-4b06-8623-b0e6dad5b01e}, !- Handle
  Compliance Insulation R0.10,            !- Name
  Smooth,                                 !- Roughness
  0.000405384,                            !- Thickness {m}
  0.0230187710627394,                     !- Conductivity {W/m-K}
  16.0184633739601,                       !- Density {kg/m3}
  1130.436;                               !- Specific Heat {J/kg-K}

OS:Material,
  {c3634604-d827-4661-a966-a48dc77d71a9}, !- Handle
  Concrete - Solid Grout - 115 lb/ft3 - 8 in., !- Name
  Smooth,                                 !- Roughness
  0.2032,                                 !- Thickness {m}
  1.31570449337553,                       !- Conductivity {W/m-K}
  1858.14175137938,                       !- Density {kg/m3}
  837.36;                                 !- Specific Heat {J/kg-K}

OS:Material,
  {61c523d2-526f-466f-a584-bc9a3d1934a9}, !- Handle
  Compliance Insulation R13.99,           !- Name
  Smooth,                                 !- Roughness
  0.05671312,                             !- Thickness {m}
  0.0230187710627394,                     !- Conductivity {W/m-K}
  16.0184633739601,                       !- Density {kg/m3}
  1130.436;                               !- Specific Heat {J/kg-K}

OS:Material,
  {a6e99bef-19f6-4d95-a06f-1b727151b198}, !- Handle
  Air - Metal Wall Framing - 16 or 24 in. OC, !- Name
  Smooth,                                 !- Roughness
  0.1397,                                 !- Thickness {m}
  1.22016793979183,                       !- Conductivity {W/m-K}
  1.28147706991681,                       !- Density {kg/m3}
  1004.832;                               !- Specific Heat {J/kg-K}

OS:Material,
  {78ffc4d6-9619-451a-ba47-bd8d3f9029d2}, !- Handle
  Compliance Insulation R10.06,           !- Name
  Smooth,                                 !- Roughness
  0.040781732,                            !- Thickness {m}
  0.0230187710627394,                     !- Conductivity {W/m-K}
  16.0184633739601,                       !- Density {kg/m3}
  1130.436;                               !- Specific Heat {J/kg-K}

OS:Material,
  {35286189-b399-4fed-954b-c94b2331d188}, !- Handle
  Compliance Insulation R2.00,            !- Name
  Smooth,                                 !- Roughness
  0.00810768,                             !- Thickness {m}
  0.0230187710627394,                     !- Conductivity {W/m-K}
  16.0184633739601,                       !- Density {kg/m3}
  1130.436;                               !- Specific Heat {J/kg-K}

OS:Material,
  {555b23d2-c00e-46f8-82a2-c72ce49cc767}, !- Handle
  Metal Standing Seam - 1/16 in.,         !- Name
  MediumRough,                            !- Roughness
  0.0015875,                              !- Thickness {m}
  2.21534037295537,                       !- Conductivity {W/m-K}
  7820.53418843482,                       !- Density {kg/m3}
  502.416,                                !- Specific Heat {J/kg-K}
  0.85,                                   !- Thermal Absorptance
  0.37,                                   !- Solar Absorptance
  0.85;                                   !- Visible Absorptance

OS:Material,
  {49f0dbc0-f372-4bb3-ae46-f4994f1e6074}, !- Handle
  Compliance Insulation R34.93,           !- Name
  Smooth,                                 !- Roughness
  0.141600682,                            !- Thickness {m}
  0.0230187710627394,                     !- Conductivity {W/m-K}
  16.0184633739601,                       !- Density {kg/m3}
  1130.436,                               !- Specific Heat {J/kg-K}
  0.9,                                    !- Thermal Absorptance
  0.7,                                    !- Solar Absorptance
  0.8;                                    !- Visible Absorptance

OS:Material,
  {13d479c0-f10a-479f-925b-71251f76addc}, !- Handle
  Compliance Insulation R28.63,           !- Name
  Smooth,                                 !- Roughness
  0.11606149,                             !- Thickness {m}
  0.0230187710627394,                     !- Conductivity {W/m-K}
  16.0184633739601,                       !- Density {kg/m3}
  1130.436,                               !- Specific Heat {J/kg-K}
  0.9,                                    !- Thermal Absorptance
  0.7,                                    !- Solar Absorptance
  0.8;                                    !- Visible Absorptance

OS:Material,
  {43071a7c-eee7-493a-9191-f1fc5b114ead}, !- Handle
  Compliance Insulation R21.39,           !- Name
  MediumRough,                            !- Roughness
  0.086711536,                            !- Thickness {m}
  0.0230187710627394,                     !- Conductivity {W/m-K}
  16.0184633739601,                       !- Density {kg/m3}
  1130.436,                               !- Specific Heat {J/kg-K}
  0.9,                                    !- Thermal Absorptance
  0.7,                                    !- Solar Absorptance
  0.8;                                    !- Visible Absorptance

OS:Material,
  {37fbd699-8b93-43b9-8218-6650249c261a}, !- Handle
  Metal Deck - 1/16 in.,                  !- Name
  MediumRough,                            !- Roughness
  0.0015875,                              !- Thickness {m}
  45.3452482589303,                       !- Conductivity {W/m-K}
  7820.53418843482,                       !- Density {kg/m3}
  502.416,                                !- Specific Heat {J/kg-K}
  0.9,                                    !- Thermal Absorptance
  0.7,                                    !- Solar Absorptance
  0.8;                                    !- Visible Absorptance

OS:Construction,
  {19a65da7-2d62-4956-9bf8-c1db6e7915f1}, !- Handle
  MetalFrameWallU062,                     !- Name
  ,                                       !- Surface Rendering Name
  {3f3a77fd-d0ba-44ba-944f-419a63b6b23c}, !- Layer 1
  {61c523d2-526f-466f-a584-bc9a3d1934a9}, !- Layer 2
  {a6e99bef-19f6-4d95-a06f-1b727151b198}, !- Layer 3
  {bbe61a82-0315-4d15-b1ed-b397fabfbf38}; !- Layer 4

OS:Construction,
  {e0616e9f-8b4c-46d0-997a-3d1f0ff4f8e7}, !- Handle
  MetalFrameWallU069,                     !- Name
  ,                                       !- Surface Rendering Name
  {0e2de891-f4f4-4ebf-8803-fa2c49ea2140}, !- Layer 1
  {78ffc4d6-9619-451a-ba47-bd8d3f9029d2}, !- Layer 2
  {35286189-b399-4fed-954b-c94b2331d188}, !- Layer 3
  {84d0049b-cdb8-45ad-8540-99203615d25d}, !- Layer 4
  {5b9d5937-39f7-4b06-8623-b0e6dad5b01e}, !- Layer 5
  {dc0cf62d-0d45-4453-856d-6ea227f677cd}, !- Layer 6
  {fb3d4692-f952-4e07-922a-639770f1ef3d}; !- Layer 7

OS:Material,
  {0e2de891-f4f4-4ebf-8803-fa2c49ea2140}, !- Handle
  Stucco - 7/8 in. 1,                     !- Name
  MediumRough,                            !- Roughness
  0.022352,                               !- Thickness {m}
  0.700947539880412,                      !- Conductivity {W/m-K}
  1855.09824333832,                       !- Density {kg/m3}
  837.36,                                 !- Specific Heat {J/kg-K}
  0.9,                                    !- Thermal Absorptance
  0.7,                                    !- Solar Absorptance
  0.8;                                    !- Visible Absorptance

OS:Material,
  {dc0cf62d-0d45-4453-856d-6ea227f677cd}, !- Handle
  Air - Metal Wall Framing - 16 or 24 in. OC 1, !- Name
  Smooth,                                 !- Roughness
  0.1397,                                 !- Thickness {m}
  1.22016793979183,                       !- Conductivity {W/m-K}
  1.28147706991681,                       !- Density {kg/m3}
  1004.832;                               !- Specific Heat {J/kg-K}

OS:Material,