
OS:Version,
  {c47f7d36-732c-41c5-97f0-3b3a9275b30d}, !- Handle
  2.7.2;                                  !- Version Identifier

OS:SimulationControl,
  {d8bb31d8-fcf3-4216-95c9-ec712c9532b7}, !- Handle
  ,                                       !- Do Zone Sizing Calculation
  ,                                       !- Do System Sizing Calculation
  ,                                       !- Do Plant Sizing Calculation
  No,                                     !- Run Simulation for Sizing Periods
  Yes,                                    !- Run Simulation for Weather File Run Periods
  ,                                       !- Loads Convergence Tolerance Value
  ,                                       !- Temperature Convergence Tolerance Value {deltaC}
  FullExterior,                           !- Solar Distribution
  50;                                     !- Maximum Number of Warmup Days

OS:YearDescription,
  {ddc7eeef-c8f6-4ea5-92c2-8aff4b83a2fc}, !- Handle
  2009,                                   !- Calendar Year
  ,                                       !- Day of Week for Start Day
  ;                                       !- Is Leap Year

OS:RunPeriod,
  {c0a2f192-e83a-40f2-9976-e7fde04e2749}, !- Handle
  CTZ06S22A,                              !- Name
  1,                                      !- Begin Month
  1,                                      !- Begin Day of Month
  12,                                     !- End Month
  31,                                     !- End Day of Month
  No,                                     !- Use Weather File Holidays and Special Days
  No,                                     !- Use Weather File Daylight Saving Period
  Yes,                                    !- Apply Weekend Holiday Rule
  ,                                       !- Use Weather File Rain Indicators
  ,                                       !- Use Weather File Snow Indicators
  ;                                       !- Number of Times Runperiod to be Repeated

OS:Site,
  {f6c29bf0-3fd8-4822-a416-dae6b4228979}, !- Handle
  CA_TORRANCE-MUNI-AP_USA Design_Conditions, !- Name
  33.8,                                   !- Latitude {deg}
  -118.33,                                !- Longitude {deg}
  -8,                                     !- Time Zone {hr}
  31.0896,                                !- Elevation {m}
  ;                                       !- Terrain

OS:SizingPeriod:DesignDay,
  {af712602-40b2-4a4b-872a-4eeae7e53483}, !- Handle
  CA_TORRANCE-MUNI-AP Ann Htg 99.6% Condns DB, !- Name
  6.9,                                    !- Maximum Dry-Bulb Temperature {C}
  0,                                      !- Daily Dry-Bulb Temperature Range {deltaC}
  6.9,                                    !- Humidity Indicating Conditions at Maximum Dry-Bulb
  100953,                                 !- Barometric Pressure {Pa}
  0.5,                                    !- Wind Speed {m/s}
  70,                                     !- Wind Direction {deg}
  0,                                      !- Sky Clearness
  0,                                      !- Rain Indicator
  0,                                      !- Snow Indicator
  21,                                     !- Day of Month
  12,                                     !- Month
  WinterDesignDay,                        !- Day Type
  0,                                      !- Daylight Saving Time Indicator
  Wetbulb,                                !- Humidity Indicating Type
  ,                                       !- Humidity Indicating Day Schedule Name
  DefaultMultipliers,                     !- Dry-Bulb Temperature Range Modifier Type
  ,                                       !- Dry-Bulb Temperature Range Modifier Schedule Name
  ASHRAEClearSky;                         !- Solar Model Indicator

OS:SizingPeriod:DesignDay,
  {d13d5721-78f3-483d-8036-849c3d604815}, !- Handle
  CA_TORRANCE-MUNI-AP Ann Clg .4% Condns DB=>MWB, !- Name
  31.1,                                   !- Maximum Dry-Bulb Temperature {C}
  6.6,                                    !- Daily Dry-Bulb Temperature Range {deltaC}
  17.1,                                   !- Humidity Indicating Conditions at Maximum Dry-Bulb
  100953,                                 !- Barometric Pressure {Pa}
  3.2,                                    !- Wind Speed {m/s}
  250,                                    !- Wind Direction {deg}
  0,                                      !- Sky Clearness
  0,                                      !- Rain Indicator
  0,                                      !- Snow Indicator
  21,                                     !- Day of Month
  8,                                      !- Month
  SummerDesignDay,                        !- Day Type
  0,                                      !- Daylight Saving Time Indicator
  Wetbulb,                                !- Humidity Indicating Type
  ,                                       !- Humidity Indicating Day Schedule Name
  DefaultMultipliers,                     !- Dry-Bulb Temperature Range Modifier Type
  ,                                       !- Dry-Bulb Temperature Range Modifier Schedule Name
  ASHRAETau,                              !- Solar Model Indicator
  ,                                       !- Beam Solar Day Schedule Name
  ,                                       !- Diffuse Solar Day Schedule Name
  0.381,                                  !- ASHRAE Taub {dimensionless}
  2.448;                                  !- ASHRAE Taud {dimensionless}

OS:SizingPeriod:DesignDay,
  {5e723783-512c-4fa6-a948-46b53df0ed74}, !- Handle
  CA_TORRANCE-MUNI-AP Ann Clg .4% Condns WB=>MDB, !- Name
  26.5,                                   !- Maximum Dry-Bulb Temperature {C}
  6.6,                                    !- Daily Dry-Bulb Temperature Range {deltaC}
  21,                                     !- Humidity Indicating Conditions at Maximum Dry-Bulb
  100953,                                 !- Barometric Pressure {Pa}
  3.2,                                    !- Wind Speed {m/s}
  250,                                    !- Wind Direction {deg}
  0,                                      !- Sky Clearness
  0,                                      !- Rain Indicator
  0,                                      !- Snow Indicator
  21,                                     !- Day of Month
  8,                                      !- Month
  SummerDesignDay,                        !- Day Type
  0,                                      !- Daylight Saving Time Indicator
  Wetbulb,                                !- Humidity Indicating Type
  ,                                       !- Humidity Indicating Day Schedule Name
  DefaultMultipliers,                     !- Dry-Bulb Temperature Range Modifier Type
  ,                                       !- Dry-Bulb Temperature Range Modifier Schedule Name
  ASHRAETau,                              !- Solar Model Indicator
  ,                                       !- Beam Solar Day Schedule Name
  ,                                       !- Diffuse Solar Day Schedule Name
  0.381,                                  !- ASHRAE Taub {dimensionless}
  2.448;                                  !- ASHRAE Taud {dimensionless}

OS:SizingPeriod:DesignDay,
  {629b4c72-ae10-486a-b43c-4321263541f8}, !- Handle
  CA_TORRANCE-MUNI-AP Ann Clg .4% Condns DP=>MDB, !- Name
  23.6,                                   !- Maximum Dry-Bulb Temperature {C}
  6.6,                                    !- Daily Dry-Bulb Temperature Range {deltaC}
  19,                                     !- Humidity Indicating Conditions at Maximum Dry-Bulb
  100953,                                 !- Barometric Pressure {Pa}
  3.2,                                    !- Wind Speed {m/s}
  250,                                    !- Wind Direction {deg}
  0,                                      !- Sky Clearness
  0,                                      !- Rain Indicator
  0,                                      !- Snow Indicator
  21,                                     !- Day of Month
  8,                                      !- Month
  SummerDesignDay,                        !- Day Type
  0,                                      !- Daylight Saving Time Indicator
  Dewpoint,                               !- Humidity Indicating Type
  ,                                       !- Humidity Indicating Day Schedule Name
  DefaultMultipliers,                     !- Dry-Bulb Temperature Range Modifier Type
  ,                                       !- Dry-Bulb Temperature Range Modifier Schedule Name
  ASHRAETau,                              !- Solar Model Indicator
  ,                                       !- Beam Solar Day Schedule Name
  ,                                       !- Diffuse Solar Day Schedule Name
  0.381,                                  !- ASHRAE Taub {dimensionless}
  2.448;                                  !- ASHRAE Taud {dimensionless}

OS:SizingPeriod:DesignDay,
  {152656ca-917f-4cc0-a71b-75f15d552c5c}, !- Handle
  CA_TORRANCE-MUNI-AP June .4% Condns DB=>MCWB, !- Name
  28.5,                                   !- Maximum Dry-Bulb Temperature {C}
  5.8,                                    !- Daily Dry-Bulb Temperature Range {deltaC}
  19.5,                                   !- Humidity Indicating Conditions at Maximum Dry-Bulb
  100953,                                 !- Barometric Pressure {Pa}
  2.6,                                    !- Wind Speed {m/s}
  250,                                    !- Wind Direction {deg}
  0,                                      !- Sky Clearness
  0,                                      !- Rain Indicator
  0,                                      !- Snow Indicator
  21,                                     !- Day of Month
  6,                                      !- Month
  SummerDesignDay,                        !- Day Type
  0,                                      !- Daylight Saving Time Indicator
  Wetbulb,                                !- Humidity Indicating Type
  ,                                       !- Humidity Indicating Day Schedule Name
  DefaultMultipliers,                     !- Dry-Bulb Temperature Range Modifier Type
  ,                                       !- Dry-Bulb Temperature Range Modifier Schedule Name
  ASHRAETau,                              !- Solar Model Indicator
  ,                                       !- Beam Solar Day Schedule Name
  ,                                       !- Diffuse Solar Day Schedule Name
  0.399,                                  !- ASHRAE Taub {dimensionless}
  2.348;                                  !- ASHRAE Taud {dimensionless}

OS:SizingPeriod:DesignDay,
  {5219345d-f77f-4fa6-aa38-a8a7094fce27}, !- Handle
  CA_TORRANCE-MUNI-AP July .4% Condns DB=>MCWB, !- Name
  29.4,                                   !- Maximum Dry-Bulb Temperature {C}
  6.3,                                    !- Daily Dry-Bulb Temperature Range {deltaC}
  21.2,                                   !- Humidity Indicating Conditions at Maximum Dry-Bulb
  100953,                                 !- Barometric Pressure {Pa}
  2.6,                                    !- Wind Speed {m/s}
  250,                                    !- Wind Direction {deg}
  0,                                      !- Sky Clearness
  0,                                      !- Rain Indicator
  0,                                      !- Snow Indicator
  21,                                     !- Day of Month
  7,                                      !- Month
  SummerDesignDay,                        !- Day Type
  0,                                      !- Daylight Saving Time Indicator
  Wetbulb,                                !- Humidity Indicating Type
  ,                                       !- Humidity Indicating Day Schedule Name
  DefaultMultipliers,                     !- Dry-Bulb Temperature Range Modifier Type
  ,                                       !- Dry-Bulb Temperature Range Modifier Schedule Name
  ASHRAETau,                              !- Solar Model Indicator
  ,                                       !- Beam Solar Day Schedule Name
  ,                                       !- Diffuse Solar Day Schedule Name
  0.399,                                  !- ASHRAE Taub {dimensionless}
  2.415;                                  !- ASHRAE Taud {dimensionless}

OS:SizingPeriod:DesignDay,
  {9f01d1e0-47c6-49fb-80e6-2fcde17351f2}, !- Handle
  CA_TORRANCE-MUNI-AP August .4% Condns DB=>MCWB, !- Name
  30.1,                                   !- Maximum Dry-Bulb Temperature {C}
  6.6,                                    !- Daily Dry-Bulb Temperature Range {deltaC}
  19.9,                                   !- Humidity Indicating Conditions at Maximum Dry-Bulb
  100953,                                 !- Barometric Pressure {Pa}
  2.4,                                    !- Wind Speed {m/s}
  250,                                    !- Wind Direction {deg}
  0,                                      !- Sky Clearness
  0,                                      !- Rain Indicator
  0,                                      !- Snow Indicator
  21,                                     !- Day of Month
  8,                                      !- Month
  SummerDesignDay,                        !- Day Type
  0,                                      !- Daylight Saving Time Indicator
  Wetbulb,                                !- Humidity Indicating Type
  ,                                       !- Humidity Indicating Day Schedule Name
  DefaultMultipliers,                     !- Dry-Bulb Temperature Range Modifier Type
  ,                                       !- Dry-Bulb Temperature Range Modifier Schedule Name
  ASHRAETau,                              !- Solar Model Indicator
  ,                                       !- Beam Solar Day Schedule Name
  ,                                       !- Diffuse Solar Day Schedule Name
  0.381,                                  !- ASHRAE Taub {dimensionless}
  2.448;                                  !- ASHRAE Taud {dimensionless}

OS:SizingPeriod:DesignDay,
  {1ec48f00-f02d-404b-a07d-3030baa08f10}, !- Handle
  CA_TORRANCE-MUNI-AP September .4% Condns DB=>MCWB, !- Name
  33.7,                                   !- Maximum Dry-Bulb Temperature {C}
  7.1,                                    !- Daily Dry-Bulb Temperature Range {deltaC}
  19.5,                                   !- Humidity Indicating Conditions at Maximum Dry-Bulb
  100953,                                 !- Barometric Pressure {Pa}
  2.2,                                    !- Wind Speed {m/s}
  250,                                    !- Wind Direction {deg}
  0,                                      !- Sky Clearness
  0,                                      !- Rain Indicator
  0,                                      !- Snow Indicator
  21,                                     !- Day of Month
  9,                                      !- Month
  SummerDesignDay,                        !- Day Type
  0,                                      !- Daylight Saving Time Indicator
  Wetbulb,                                !- Humidity Indicating Type
  ,                                       !- Humidity Indicating Day Schedule Name
  DefaultMultipliers,                     !- Dry-Bulb Temperature Range Modifier Type
  ,                                       !- Dry-Bulb Temperature Range Modifier Schedule Name
  ASHRAETau,                              !- Solar Model Indicator
  ,                                       !- Beam Solar Day Schedule Name
  ,                                       !- Diffuse Solar Day Schedule Name
  0.367,                                  !- ASHRAE Taub {dimensionless}
  2.48;                                   !- ASHRAE Taud {dimensionless}

OS:SizingPeriod:DesignDay,
  {af5c0df2-dc38-4342-a43f-10c46ee17958}, !- Handle
  CA_TORRANCE-MUNI-AP October .4% Condns DB=>MCWB, !- Name
  33.8,                                   !- Maximum Dry-Bulb Temperature {C}
  7.9,                                    !- Daily Dry-Bulb Temperature Range {deltaC}
  16.1,                                   !- Humidity Indicating Conditions at Maximum Dry-Bulb
  100953,                                 !- Barometric Pressure {Pa}
  1.8,                                    !- Wind Speed {m/s}
  250,                                    !- Wind Direction {deg}
  0,                                      !- Sky Clearness
  0,                                      !- Rain Indicator
  0,                                      !- Snow Indicator
  21,                                     !- Day of Month
  10,                                     !- Month
  SummerDesignDay,                        !- Day Type
  0,                                      !- Daylight Saving Time Indicator
  Wetbulb,                                !- Humidity Indicating Type
  ,                                       !- Humidity Indicating Day Schedule Name
  DefaultMultipliers,                     !- Dry-Bulb Temperature Range Modifier Type
  ,                                       !- Dry-Bulb Temperature Range Modifier Schedule Name
  ASHRAETau,                              !- Solar Model Indicator
  ,                                       !- Beam Solar Day Schedule Name
  ,                                       !- Diffuse Solar Day Schedule Name
  0.374,                                  !- ASHRAE Taub {dimensionless}
  2.43;                                   !- ASHRAE Taud {dimensionless}

OS:SizingPeriod:DesignDay,
  {35909dc3-b4ff-4e14-be4a-91e0714a3b4b}, !- Handle
  CA_TORRANCE-MUNI-AP November .4% Condns DB=>MCWB, !- Name
  31.1,                                   !- Maximum Dry-Bulb Temperature {C}
  9.1,                                    !- Daily Dry-Bulb Temperature Range {deltaC}
  15.2,                                   !- Humidity Indicating Conditions at Maximum Dry-Bulb
  100953,                                 !- Barometric Pressure {Pa}
  1.4,                                    !- Wind Speed {m/s}
  250,                                    !- Wind Direction {deg}
  0,                                      !- Sky Clearness
  0,                                      !- Rain Indicator
  0,                                      !- Snow Indicator
  21,                                     !- Day of Month
  11,                                     !- Month
  SummerDesignDay,                        !- Day Type
  0,                                      !- Daylight Saving Time Indicator
  Wetbulb,                                !- Humidity Indicating Type
  ,                                       !- Humidity Indicating Day Schedule Name
  DefaultMultipliers,                     !- Dry-Bulb Temperature Range Modifier Type
  ,                                       !- Dry-Bulb Temperature Range Modifier Schedule Name
  ASHRAETau,                              !- Solar Model Indicator
  ,                                       !- Beam Solar Day Schedule Name
  ,                                       !- Diffuse Solar Day Schedule Name
  0.323,                                  !- ASHRAE Taub {dimensionless}
  2.574;                                  !- ASHRAE Taud {dimensionless}

OS:WeatherFile,
  {73be091c-c91b-4524-a3e2-3eeec24d43dc}, !- Handle
  CA_TORRANCE-MUNI-AP,                    !- City
  -,                                      !- State Province Region
  USA,                                    !- Country
  Custom-722955,                          !- Data Source
  722955,                                 !- WMO Number
  33.8,                                   !- Latitude {deg}
  -118.33,                                !- Longitude {deg}
  -8,                                     !- Time Zone {hr}
  31,                                     !- Elevation {m}
  file:///C:/Documents/CBECC-Com 2022 Data/EPW/CTZ06S22A.epw, !- Url
  0CB1029E;                               !- Checksum

OS:Sizing:Parameters,
  {74f2e76f-3d1c-4c57-8b9d-f6e2cf7c0329}, !- Handle
  1,                                      !- Heating Sizing Factor
  1;                                      !- Cooling Sizing Factor

OS:Material,
  {57ef1002-7e9c-4c9d-bd73-c25a57f48323}, !- Handle
  Gypsum Board - 1/2 in.,                 !- Name
  MediumRough,                            !- Roughness
  0.0127,                                 !- Thickness {m}
  0.158656446866265,                      !- Conductivity {W/m-K}
  640.738534958406,                       !- Density {kg/m3}
  1130.436,                               !- Specific Heat {J/kg-K}
  0.9,                                    !- Thermal Absorptance
  0.7,                                    !- Solar Absorptance
  0.8;                                    !- Visible Absorptance

OS:Material,
  {9c765fb4-18bd-4726-b72e-0a8733727f07}, !- Handle
  Gypsum Board - 5/8 in.,                 !- Name
  Smooth,                                 !- Roughness
  0.016002,                               !- Thickness {m}
  0.158656446866265,                      !- Conductivity {W/m-K}
  640.738534958406,                       !- Density {kg/m3}
  1130.436,                               !- Specific Heat {J/kg-K}
  0.9,                                    !- Thermal Absorptance
  0.7,                                    !- Solar Absorptance
  0.8;                                    !- Visible Absorptance

OS:Material,
  {4b8f013c-7192-4a70-86e7-cc1aabd27f69}, !- Handle
  Stucco - 7/8 in.,                       !- Name
  MediumRough,                            !- Roughness
  0.022352,                               !- Thickness {m}
  0.700947539880412,                      !- Conductivity {W/m-K}
  1855.09824333832,                       !- Density {kg/m3}
  837.36,                                 !- Specific Heat {J/kg-K}
  0.9,                                    !- Thermal Absorptance
  0.7,                                    !- Solar Absorptance
  0.8;                                    !- Visible Absorptance

OS:Material,
  {592831c4-38a1-4f7e-b992-a03f7365ab12}, !- Handle
  Carpet - 3/4 in.,                       !- Name
  Smooth,                                 !- Roughness
  0.01905,                                !- Thickness {m}
  0.0455183217255675,                     !- Conductivity {W/m-K}
  288.332340731283,                       !- Density {kg/m3}
  1381.644,                               !- Specific Heat {J/kg-K}
  0.9,                                    !- Thermal Absorptance
  0.7,                                    !- Solar Absorptance
  0.8;                                    !- Visible Absorptance

OS:Material,
  {acbefd92-1c1e-44c8-ba1b-6fa136f24796}, !- Handle
  Plywood - 5/8 in.,                      !- Name
  Smooth,                                 !- Roughness
  0.016002,                               !- Thickness {m}
  0.115440002246971,                      !- Conductivity {W/m-K}
  480.553901218804,                       !- Density {kg/m3}
  1884.06;                                !- Specific Heat {J/kg-K}

OS:Material,
  {20b4df9c-65ed-4f14-b896-fa35d38c4f91}, !- Handle
  Compliance Insulation R1.35,            !- Name
  Smooth,                                 !- Roughness
  0.005472684,                            !- Thickness {m}
  0.0230187710627394,                     !- Conductivity {W/m-K}
  16.0184633739601,                       !- Density {kg/m3}
  1130.436;                               !- Specific Heat {J/kg-K}

OS:Material,
  {07f01c00-6878-4583-96ec-a69717baf7ff}, !- Handle
  Compliance Insulation R6.00,            !- Name
  Smooth,                                 !- Roughness
  0.02432304,                             !- Thickness {m}
  0.0230187710627394,                     !- Conductivity {W/m-K}
  16.0184633739601,                       !- Density {kg/m3}
  1130.436;                               !- Specific Heat {J/kg-K}

OS:Material:NoMass,
  {5921bdf0-edf2-4a16-99bb-867c7ce4fdc2}, !- Handle
  WoodFrameWall16inOC R11.25,             !- Name
  Smooth,                                 !- Roughness
  1.26865197459958;                       !- Thermal Resistance {m2-K/W}

OS:Material,
  {4dab2662-9996-4437-b771-5d0f6a8649d3}, !- Handle
  Concrete - 140 lb/ft3 - 10 in.,         !- Name
  Smooth,                                 !- Roughness
  0.254,                                  !- Thickness {m}
  1.95140333633374,                       !- Conductivity {W/m-K}
  2239.06081041215,                       !- Density {kg/m3}
  921.096,                                !- Specific Heat {J/kg-K}
  0.9,                                    !- Thermal Absorptance
  0.7,                                    !- Solar Absorptance
  0.8;                                    !- Visible Absorptance

OS:Material:NoMass,
  {70765a10-ac71-4fb8-abe7-d7bbafd70f10}, !- Handle
  WoodRoof16OCCavInsR36,                  !- Name
  Smooth,                                 !- Roughness
  4.52347812297188,                       !- Thermal Resistance {m2-K/W}
  0.9,                                    !- Thermal Absorptance
  0.7,                                    !- Solar Absorptance
  0.8;                                    !- Visible Absorptance

OS:Material,
  {c9901617-bbda-4ef7-a4d8-94646dce4e1c}, !- Handle
  Building Paper - 1/16 in.,              !- Name
  Smooth,                                 !- Roughness
  0.001524,                               !- Thickness {m}
  0.28851346888411,                       !- Conductivity {W/m-K}
  96.1107802437608,                       !- Density {kg/m3}
  1256.04;                                !- Specific Heat {J/kg-K}

OS:Material,
  {0f34ded6-382c-4a50-b507-0722c9bb3e28}, !- Handle
  Fiberboard sheathing - 1/2 in.,         !- Name
  Smooth,                                 !- Roughness
  0.0127,                                 !- Thickness {m}
  0.0706139743879526,                     !- Conductivity {W/m-K}
  399.820845814045,                       !- Density {kg/m3}
  1297.908;                               !- Specific Heat {J/kg-K}

OS:Material,
  {32460279-8330-4e16-adb1-3ee374cde4d4}, !- Handle
  Roofing felt - 1/8 in.,                 !- Name
  MediumRough,                            !- Roughness
  0.001524,                               !- Thickness {m}
  1.19714916872909,                       !- Conductivity {W/m-K}
  230.665872585026,                       !- Density {kg/m3}
  1256.04,                                !- Specific Heat {J/kg-K}
  0.75,                                   !- Thermal Absorptance
  0.9,                                    !- Solar Absorptance
  0.85;                                   !- Visible Absorptance

OS:Material:NoMass,
  {68639269-106d-4522-81db-31107d121c47}, !- Handle
  WoodFloor16inOCCavInsR0,                !- Name
  Smooth,                                 !- Roughness
  0.162021368987722;                      !- Thermal Resistance {m2-K/W}

OS:Material,
  {ba037cdc-cc26-482f-9c45-b6e6b91188c3}, !- Handle
  Stone - 1 in.,                          !- Name
  MediumRough,                            !- Roughness
  0.0254,                                 !- Thickness {m}
  1.80342552235899,                       !- Conductivity {W/m-K}
  2239.06081041215,                       !- Density {kg/m3}
  921.096,                                !- Specific Heat {J/kg-K}
  0.85,                                   !- Thermal Absorptance
  0.92,                                   !- Solar Absorptance
  0.85;                                   !- Visible Absorptance

OS:Material:NoMass,
  {6fc08a55-7dd0-445a-bb54-4e646ec70800}, !- Handle
  WoodFraming16inOC,                      !- Name
  Smooth,                                 !- Roughness
  0.14969365612996;                       !- Thermal Resistance {m2-K/W}

OS:Material,
  {fa3a0fa7-2da2-4ca8-8118-14e397885bb8}, !- Handle
  Concrete - 140 lb/ft3 - 8 in.,          !- Name
  Smooth,                                 !- Roughness
  0.2032,                                 !- Thickness {m}
  1.95140333633374,                       !- Conductivity {W/m-K}
  2239.06081041215,                       !- Density {kg/m3}
  921.096;                                !- Specific Heat {J/kg-K}

OS:Material,
  {4ed7fe36-3ad0-4037-996a-75b421456c76}, !- Handle
  Concrete - 140 lb/ft3 - 4 in.,          !- Name
  Smooth,                                 !- Roughness
  0.1016,                                 !- Thickness {m}
  1.95140333633374,                       !- Conductivity {W/m-K}
  2239.06081041215,                       !- Density {kg/m3}
  921.096;                                !- Specific Heat {J/kg-K}

OS:Material,
  {0813d855-7324-41ab-b703-1e1a0d380262}, !- Handle
  Compliance Insulation R0.20,            !- Name
  Smooth,                                 !- Roughness
  0.000810768,                            !- Thickness {m}
  0.0230187710627394,                     !- Conductivity {W/m-K}
  16.0184633739601,                       !- Density {kg/m3}
  1130.436;                               !- Specific Heat {J/kg-K}

OS:Material,
  {10f79e90-dcd7-4c65-8872-70ff01562bc4}, !- Handle
  Compliance Insulation R0.10,            !- Name
  Smooth,                                 !- Roughness
  0.000405384,                            !- Thickness {m}
  0.0230187710627394,                     !- Conductivity {W/m-K}
  16.0184633739601,                       !- Density {kg/m3}
  1130.436;                               !- Specific Heat {J/kg-K}

OS:Material,
  {b40c992f-f038-46d3-8f95-63239d7f93d2}, !- Handle
  Compliance Insulation R2.15,            !- Name
  Smooth,                                 !- Roughness
  0.008715756,                            !- Thickness {m}
  0.0230187710627394,                     !- Conductivity {W/m-K}
  16.0184633739601,                       !- Density {kg/m3}
  1130.436;                               !- Specific Heat {J/kg-K}

OS:Material,