
OS:Version,
  {354a6f45-1d6c-455b-956e-5da2200aa3fd}, !- Handle
  2.7.2;                                  !- Version Identifier

OS:SimulationControl,
  {c2bc0a9a-731b-47b6-92df-cbedf8ba9ee9}, !- Handle
  ,                                       !- Do Zone Sizing Calculation
  ,                                       !- Do System Sizing Calculation
  ,                                       !- Do Plant Sizing Calculation
  Yes,                                    !- Run Simulation for Sizing Periods
  No,                                     !- Run Simulation for Weather File Run Periods
  ,                                       !- Loads Convergence Tolerance Value
  ,                                       !- Temperature Convergence Tolerance Value {deltaC}
  FullExterior,                           !- Solar Distribution
  50;                                     !- Maximum Number of Warmup Days

OS:Site,
  {b937c4bd-656a-4501-9880-15ec36ace1a4}, !- Handle
  FRESNO-YOSEMITE-INTL-AP Design_Conditions, !- Name
  36.77,                                  !- Latitude {deg}
  -119.72,                                !- Longitude {deg}
  -8,                                     !- Time Zone {hr}
  100.8888,                               !- Elevation {m}
  ;                                       !- Terrain

OS:SizingPeriod:DesignDay,
  {72c2d51b-614e-4824-a296-c91861aab895}, !- Handle
  FRESNO-YOSEMITE-INTL-AP Ann Htg 99.6% Condns DB, !- Name
  0,                                      !- Maximum Dry-Bulb Temperature {C}
  0,                                      !- Daily Dry-Bulb Temperature Range {deltaC}
  0,                                      !- Humidity Indicating Conditions at Maximum Dry-Bulb
  100118,                                 !- Barometric Pressure {Pa}
  0.9,                                    !- Wind Speed {m/s}
  90,                                     !- Wind Direction {deg}
  0,                                      !- Sky Clearness
  0,                                      !- Rain Indicator
  0,                                      !- Snow Indicator
  21,                                     !- Day of Month
  1,                                      !- Month
  WinterDesignDay,                        !- Day Type
  0,                                      !- Daylight Saving Time Indicator
  Wetbulb,                                !- Humidity Indicating Type
  ,                                       !- Humidity Indicating Day Schedule Name
  DefaultMultipliers,                     !- Dry-Bulb Temperature Range Modifier Type
  ,                                       !- Dry-Bulb Temperature Range Modifier Schedule Name
  ASHRAEClearSky;                         !- Solar Model Indicator

OS:SizingPeriod:DesignDay,
  {bc45d255-d956-4f2d-96f9-91bd3f1aee1f}, !- Handle
  FRESNO-YOSEMITE-INTL-AP Ann Clg 0.4% Condns DB=>MCWB, !- Name
  39.4,                                   !- Maximum Dry-Bulb Temperature {C}
  16.2,                                   !- Daily Dry-Bulb Temperature Range {deltaC}
  21.3,                                   !- Humidity Indicating Conditions at Maximum Dry-Bulb
  100118,                                 !- Barometric Pressure {Pa}
  3.7,                                    !- Wind Speed {m/s}
  292,                                    !- Wind Direction {deg}
  0,                                      !- Sky Clearness
  0,                                      !- Rain Indicator
  0,                                      !- Snow Indicator
  21,                                     !- Day of Month
  7,                                      !- Month
  SummerDesignDay,                        !- Day Type
  0,                                      !- Daylight Saving Time Indicator
  Wetbulb,                                !- Humidity Indicating Type
  ,                                       !- Humidity Indicating Day Schedule Name
  DefaultMultipliers,                     !- Dry-Bulb Temperature Range Modifier Type
  ,                                       !- Dry-Bulb Temperature Range Modifier Schedule Name
  ASHRAETau,                              !- Solar Model Indicator
  ,                                       !- Beam Solar Day Schedule Name
  ,                                       !- Diffuse Solar Day Schedule Name
  0.428,                                  !- ASHRAE Taub {dimensionless}
  2.152;                                  !- ASHRAE Taud {dimensionless}

OS:SizingPeriod:DesignDay,
  {6d883ded-a037-4239-aead-41a5154ee1cc}, !- Handle
  FRESNO-YOSEMITE-INTL-AP Ann Clg 0.4% Condns DP=>MCDB, !- Name
  29.7,                                   !- Maximum Dry-Bulb Temperature {C}
  16.2,                                   !- Daily Dry-Bulb Temperature Range {deltaC}
  18.3,                                   !- Humidity Indicating Conditions at Maximum Dry-Bulb
  100118,                                 !- Barometric Pressure {Pa}
  3.6,                                    !- Wind Speed {m/s}
  292,                                    !- Wind Direction {deg}
  0,                                      !- Sky Clearness
  0,                                      !- Rain Indicator
  0,                                      !- Snow Indicator
  21,                                     !- Day of Month
  7,                                      !- Month
  SummerDesignDay,                        !- Day Type
  0,                                      !- Daylight Saving Time Indicator
  Dewpoint,                               !- Humidity Indicating Type
  ,                                       !- Humidity Indicating Day Schedule Name
  DefaultMultipliers,                     !- Dry-Bulb Temperature Range Modifier Type
  ,                                       !- Dry-Bulb Temperature Range Modifier Schedule Name
  ASHRAETau,                              !- Solar Model Indicator
  ,                                       !- Beam Solar Day Schedule Name
  ,                                       !- Diffuse Solar Day Schedule Name
  0.428,                                  !- ASHRAE Taub {dimensionless}
  2.152;                                  !- ASHRAE Taud {dimensionless}

OS:SizingPeriod:DesignDay,
  {ba05558c-23e7-4d7c-a1a5-eca11b5d6c7d}, !- Handle
  FRESNO-YOSEMITE-INTL-AP JUN Clg 0.4% Condns DB=>MCWB, !- Name
  40,                                     !- Maximum Dry-Bulb Temperature {C}
  16.5,                                   !- Daily Dry-Bulb Temperature Range {deltaC}
  21.2,                                   !- Humidity Indicating Conditions at Maximum Dry-Bulb
  100118,                                 !- Barometric Pressure {Pa}
  4.1,                                    !- Wind Speed {m/s}
  270,                                    !- Wind Direction {deg}
  0,                                      !- Sky Clearness
  0,                                      !- Rain Indicator
  0,                                      !- Snow Indicator
  21,                                     !- Day of Month
  6,                                      !- Month
  SummerDesignDay,                        !- Day Type
  0,                                      !- Daylight Saving Time Indicator
  Wetbulb,                                !- Humidity Indicating Type
  ,                                       !- Humidity Indicating Day Schedule Name
  DefaultMultipliers,                     !- Dry-Bulb Temperature Range Modifier Type
  ,                                       !- Dry-Bulb Temperature Range Modifier Schedule Name
  ASHRAETau,                              !- Solar Model Indicator
  ,                                       !- Beam Solar Day Schedule Name
  ,                                       !- Diffuse Solar Day Schedule Name
  0.378,                                  !- ASHRAE Taub {dimensionless}
  2.375;                                  !- ASHRAE Taud {dimensionless}

OS:SizingPeriod:DesignDay,
  {3be3284a-4839-4ad3-b046-8da61616dd85}, !- Handle
  FRESNO-YOSEMITE-INTL-AP JUL Clg 0.4% Condns DB=>MCWB, !- Name
  43,                                     !- Maximum Dry-Bulb Temperature {C}
  16.2,                                   !- Daily Dry-Bulb Temperature Range {deltaC}
  22,                                     !- Humidity Indicating Conditions at Maximum Dry-Bulb
  100118,                                 !- Barometric Pressure {Pa}
  3.8,                                    !- Wind Speed {m/s}
  270,                                    !- Wind Direction {deg}
  0,                                      !- Sky Clearness
  0,                                      !- Rain Indicator
  0,                                      !- Snow Indicator
  21,                                     !- Day of Month
  7,                                      !- Month
  SummerDesignDay,                        !- Day Type
  0,                                      !- Daylight Saving Time Indicator
  Wetbulb,                                !- Humidity Indicating Type
  ,                                       !- Humidity Indicating Day Schedule Name
  DefaultMultipliers,                     !- Dry-Bulb Temperature Range Modifier Type
  ,                                       !- Dry-Bulb Temperature Range Modifier Schedule Name
  ASHRAETau,                              !- Solar Model Indicator
  ,                                       !- Beam Solar Day Schedule Name
  ,                                       !- Diffuse Solar Day Schedule Name
  0.428,                                  !- ASHRAE Taub {dimensionless}
  2.152;                                  !- ASHRAE Taud {dimensionless}

OS:SizingPeriod:DesignDay,
  {7680fea1-e322-4386-a464-60eb688829eb}, !- Handle
  FRESNO-YOSEMITE-INTL-AP AUG Clg 0.4% Condns DB=>MCWB, !- Name
  41,                                     !- Maximum Dry-Bulb Temperature {C}
  16.4,                                   !- Daily Dry-Bulb Temperature Range {deltaC}
  20.7,                                   !- Humidity Indicating Conditions at Maximum Dry-Bulb
  100118,                                 !- Barometric Pressure {Pa}
  3.5,                                    !- Wind Speed {m/s}
  270,                                    !- Wind Direction {deg}
  0,                                      !- Sky Clearness
  0,                                      !- Rain Indicator
  0,                                      !- Snow Indicator
  21,                                     !- Day of Month
  8,                                      !- Month
  SummerDesignDay,                        !- Day Type
  0,                                      !- Daylight Saving Time Indicator
  Wetbulb,                                !- Humidity Indicating Type
  ,                                       !- Humidity Indicating Day Schedule Name
  DefaultMultipliers,                     !- Dry-Bulb Temperature Range Modifier Type
  ,                                       !- Dry-Bulb Temperature Range Modifier Schedule Name
  ASHRAETau,                              !- Solar Model Indicator
  ,                                       !- Beam Solar Day Schedule Name
  ,                                       !- Diffuse Solar Day Schedule Name
  0.428,                                  !- ASHRAE Taub {dimensionless}
  2.15;                                   !- ASHRAE Taud {dimensionless}

OS:SizingPeriod:DesignDay,
  {bd64c614-2feb-4228-8941-b52c0882979d}, !- Handle
  FRESNO-YOSEMITE-INTL-AP SEP Clg 0.4% Condns DB=>MCWB, !- Name
  39.4,                                   !- Maximum Dry-Bulb Temperature {C}
  16.5,                                   !- Daily Dry-Bulb Temperature Range {deltaC}
  20.8,                                   !- Humidity Indicating Conditions at Maximum Dry-Bulb
  100118,                                 !- Barometric Pressure {Pa}
  3.6,                                    !- Wind Speed {m/s}
  292,                                    !- Wind Direction {deg}
  0,                                      !- Sky Clearness
  0,                                      !- Rain Indicator
  0,                                      !- Snow Indicator
  21,                                     !- Day of Month
  9,                                      !- Month
  SummerDesignDay,                        !- Day Type
  0,                                      !- Daylight Saving Time Indicator
  Wetbulb,                                !- Humidity Indicating Type
  ,                                       !- Humidity Indicating Day Schedule Name
  DefaultMultipliers,                     !- Dry-Bulb Temperature Range Modifier Type
  ,                                       !- Dry-Bulb Temperature Range Modifier Schedule Name
  ASHRAETau,                              !- Solar Model Indicator
  ,                                       !- Beam Solar Day Schedule Name
  ,                                       !- Diffuse Solar Day Schedule Name
  0.379,                                  !- ASHRAE Taub {dimensionless}
  2.371;                                  !- ASHRAE Taud {dimensionless}

OS:SizingPeriod:DesignDay,
  {42d1fbb3-02a4-466d-9fc7-f496669dae6c}, !- Handle
  FRESNO-YOSEMITE-INTL-AP OCT Clg 0.4% Condns DB=>MCWB, !- Name
  33.3,                                   !- Maximum Dry-Bulb Temperature {C}
  14.7,                                   !- Daily Dry-Bulb Temperature Range {deltaC}
  18.2,                                   !- Humidity Indicating Conditions at Maximum Dry-Bulb
  100118,                                 !- Barometric Pressure {Pa}
  1.6,                                    !- Wind Speed {m/s}
  292,                                    !- Wind Direction {deg}
  0,                                      !- Sky Clearness
  0,                                      !- Rain Indicator
  0,                                      !- Snow Indicator
  21,                                     !- Day of Month
  10,                                     !- Month
  SummerDesignDay,                        !- Day Type
  0,                                      !- Daylight Saving Time Indicator
  Wetbulb,                                !- Humidity Indicating Type
  ,                                       !- Humidity Indicating Day Schedule Name
  DefaultMultipliers,                     !- Dry-Bulb Temperature Range Modifier Type
  ,                                       !- Dry-Bulb Temperature Range Modifier Schedule Name
  ASHRAETau,                              !- Solar Model Indicator
  ,                                       !- Beam Solar Day Schedule Name
  ,                                       !- Diffuse Solar Day Schedule Name
  0.37,                                   !- ASHRAE Taub {dimensionless}
  2.303;                                  !- ASHRAE Taud {dimensionless}

OS:SizingPeriod:DesignDay,
  {bb2fec0f-1a17-4457-bff8-40dd3d036d8b}, !- Handle
  FRESNO-YOSEMITE-INTL-AP NOV Clg 0.4% Condns DB=>MCWB, !- Name
  26.1,                                   !- Maximum Dry-Bulb Temperature {C}
  10.1,                                   !- Daily Dry-Bulb Temperature Range {deltaC}
  15.4,                                   !- Humidity Indicating Conditions at Maximum Dry-Bulb
  100118,                                 !- Barometric Pressure {Pa}
  1.3,                                    !- Wind Speed {m/s}
  270,                                    !- Wind Direction {deg}
  0,                                      !- Sky Clearness
  0,                                      !- Rain Indicator
  0,                                      !- Snow Indicator
  21,                                     !- Day of Month
  11,                                     !- Month
  SummerDesignDay,                        !- Day Type
  0,                                      !- Daylight Saving Time Indicator
  Wetbulb,                                !- Humidity Indicating Type
  ,                                       !- Humidity Indicating Day Schedule Name
  DefaultMultipliers,                     !- Dry-Bulb Temperature Range Modifier Type
  ,                                       !- Dry-Bulb Temperature Range Modifier Schedule Name
  ASHRAETau,                              !- Solar Model Indicator
  ,                                       !- Beam Solar Day Schedule Name
  ,                                       !- Diffuse Solar Day Schedule Name
  0.328,                                  !- ASHRAE Taub {dimensionless}
  2.497;                                  !- ASHRAE Taud {dimensionless}

OS:WeatherFile,
  {0474851a-5827-4c7d-9d9a-ccd64c6c75b1}, !- Handle
  FRESNO-YOSEMITE-IAP,                    !- City
  -,                                      !- State Province Region
  USA,                                    !- Country
  Custom-723890,                          !- Data Source
  723890,                                 !- WMO Number
  36.78,                                  !- Latitude {deg}
  -119.72,                                !- Longitude {deg}
  -8,                                     !- Time Zone {hr}
  102,                                    !- Elevation {m}
  file:///C:/Users/mnakajima/Documents/CBECC-Com 2019 Data/EPW/FRESNO_723890_CZ2010.epw, !- Url
  C3BBA911;                               !- Checksum

OS:Sizing:Parameters,
  {55a5a4e7-8db6-426f-8728-b6bfc34541d0}, !- Handle
  1,                                      !- Heating Sizing Factor
  1;                                      !- Cooling Sizing Factor

OS:Material,
  {1e38e3fc-57d2-471f-9e8e-9dcaf781d222}, !- Handle
  Gypsum Board - 1/2 in.,                 !- Name
  Smooth,                                 !- Roughness
  0.0127,                                 !- Thickness {m}
  0.158656446866265,                      !- Conductivity {W/m-K}
  640.738534958406,                       !- Density {kg/m3}
  1130.436,                               !- Specific Heat {J/kg-K}
  0.9,                                    !- Thermal Absorptance
  0.7,                                    !- Solar Absorptance
  0.8;                                    !- Visible Absorptance

OS:Material,
  {a29e6d00-2d57-4be7-ad43-b491f84eeb20}, !- Handle
  Gypsum Board - 5/8 in.,                 !- Name
  MediumRough,                            !- Roughness
  0.016002,                               !- Thickness {m}
  0.158656446866265,                      !- Conductivity {W/m-K}
  640.738534958406,                       !- Density {kg/m3}
  1130.436,                               !- Specific Heat {J/kg-K}
  0.9,                                    !- Thermal Absorptance
  0.7,                                    !- Solar Absorptance
  0.8;                                    !- Visible Absorptance

OS:Material,
  {ea8b8686-eed3-4cc0-bb04-b4c140b106f1}, !- Handle
  Stucco - 7/8 in.,                       !- Name
  MediumRough,                            !- Roughness
  0.022352,                               !- Thickness {m}
  0.700947539880412,                      !- Conductivity {W/m-K}
  1855.09824333832,                       !- Density {kg/m3}
  837.36,                                 !- Specific Heat {J/kg-K}
  0.9,                                    !- Thermal Absorptance
  0.7,                                    !- Solar Absorptance
  0.8;                                    !- Visible Absorptance

OS:Material,
  {f2d59d71-735a-4054-8b23-afdfa377aebe}, !- Handle
  Carpet - 3/4 in.,                       !- Name
  Smooth,                                 !- Roughness
  0.01905,                                !- Thickness {m}
  0.0455183217255675,                     !- Conductivity {W/m-K}
  288.332340731283,                       !- Density {kg/m3}
  1381.644,                               !- Specific Heat {J/kg-K}
  0.9,                                    !- Thermal Absorptance
  0.7,                                    !- Solar Absorptance
  0.8;                                    !- Visible Absorptance

OS:Material,
  {dc999541-923a-4ef9-acc9-20dc228676bf}, !- Handle
  Plywood - 5/8 in.,                      !- Name
  Smooth,                                 !- Roughness
  0.016002,                               !- Thickness {m}
  0.115440002246971,                      !- Conductivity {W/m-K}
  480.553901218804,                       !- Density {kg/m3}
  1884.06;                                !- Specific Heat {J/kg-K}

OS:Material,
  {cd2c5ee0-4f0d-4f64-8a2a-e8f8a339449a}, !- Handle
  Concrete - 140 lb/ft3 - 4 in.,          !- Name
  Smooth,                                 !- Roughness
  0.1016,                                 !- Thickness {m}
  1.95140333633374,                       !- Conductivity {W/m-K}
  2239.06081041215,                       !- Density {kg/m3}
  921.096;                                !- Specific Heat {J/kg-K}

OS:Material,
  {2efb2461-927f-49ce-88a4-e519d032b8b9}, !- Handle
  Compliance Insulation R0.20,            !- Name
  Smooth,                                 !- Roughness
  0.000810768,                            !- Thickness {m}
  0.0230187710627394,                     !- Conductivity {W/m-K}
  16.0184633739601,                       !- Density {kg/m3}
  1130.436;                               !- Specific Heat {J/kg-K}

OS:Material,
  {6ec298bc-ca0d-463d-9534-972cdbe585ca}, !- Handle
  Compliance Insulation R0.10,            !- Name
  Smooth,                                 !- Roughness
  0.000405384,                            !- Thickness {m}
  0.0230187710627394,                     !- Conductivity {W/m-K}
  16.0184633739601,                       !- Density {kg/m3}
  1130.436;                               !- Specific Heat {J/kg-K}

OS:Material,
  {6213e1cf-f803-4aca-9463-01f69884e027}, !- Handle
  Concrete - Solid Grout - 115 lb/ft3 - 8 in., !- Name
  Smooth,                                 !- Roughness
  0.2032,                                 !- Thickness {m}
  1.31570449337553,                       !- Conductivity {W/m-K}
  1858.14175137938,                       !- Density {kg/m3}
  837.36;                                 !- Specific Heat {J/kg-K}

OS:Material,
  {c0a6cf41-19cc-46cd-a54e-8f4634d60191}, !- Handle
  Compliance Insulation R13.99,           !- Name
  Smooth,                                 !- Roughness
  0.05671312,                             !- Thickness {m}
  0.0230187710627394,                     !- Conductivity {W/m-K}
  16.0184633739601,                       !- Density {kg/m3}
  1130.436;                               !- Specific Heat {J/kg-K}

OS:Material,
  {4632aec3-1eb8-47a5-9477-0bbc81e5ca50}, !- Handle
  Air - Metal Wall Framing - 16 or 24 in. OC, !- Name
  Smooth,                                 !- Roughness
  0.1397,                                 !- Thickness {m}
  1.22016793979183,                       !- Conductivity {W/m-K}
  1.28147706991681,                       !- Density {kg/m3}
  1004.832;                               !- Specific Heat {J/kg-K}

OS:Material,
  {7ca6efba-8a74-48d4-b8d9-8514a276f05d}, !- Handle
  Compliance Insulation R10.06,           !- Name
  Smooth,                                 !- Roughness
  0.040781732,                            !- Thickness {m}
  0.0230187710627394,                     !- Conductivity {W/m-K}
  16.0184633739601,                       !- Density {kg/m3}
  1130.436;                               !- Specific Heat {J/kg-K}

OS:Material,
  {9dfb69f9-3de8-4f6f-8286-682d2cca9849}, !- Handle
  Compliance Insulation R2.00,            !- Name
  Smooth,                                 !- Roughness
  0.00810768,                             !- Thickness {m}
  0.0230187710627394,                     !- Conductivity {W/m-K}
  16.0184633739601,                       !- Density {kg/m3}
  1130.436;                               !- Specific Heat {J/kg-K}

OS:Material,
  {d881f0e6-a693-4970-b62b-f80416bfc694}, !- Handle
  Metal Standing Seam - 1/16 in.,         !- Name
  MediumRough,                            !- Roughness
  0.0015875,                              !- Thickness {m}
  2.21534037295537,                       !- Conductivity {W/m-K}
  7820.53418843482,                       !- Density {kg/m3}
  502.416,                                !- Specific Heat {J/kg-K}
  0.85,                                   !- Thermal Absorptance
  0.37,                                   !- Solar Absorptance
  0.85;                                   !- Visible Absorptance

OS:Material,
  {5f76d2ba-5db3-43c4-b5c8-0ccae98f5b3c}, !- Handle
  Compliance Insulation R34.93,           !- Name
  Smooth,                                 !- Roughness
  0.141600682,                            !- Thickness {m}
  0.0230187710627394,                     !- Conductivity {W/m-K}
  16.0184633739601,                       !- Density {kg/m3}
  1130.436,                               !- Specific Heat {J/kg-K}
  0.9,                                    !- Thermal Absorptance
  0.7,                                    !- Solar Absorptance
  0.8;                                    !- Visible Absorptance

OS:Material,
  {43844589-f1c8-45e0-babe-6f14d9f9b18e}, !- Handle
  Compliance Insulation R28.63,           !- Name
  Smooth,                                 !- Roughness
  0.11606149,                             !- Thickness {m}
  0.0230187710627394,                     !- Conductivity {W/m-K}
  16.0184633739601,                       !- Density {kg/m3}
  1130.436,                               !- Specific Heat {J/kg-K}
  0.9,                                    !- Thermal Absorptance
  0.7,                                    !- Solar Absorptance
  0.8;                                    !- Visible Absorptance

OS:Material,
  {c85fbdfa-f50b-45de-85c3-d95833d4bc20}, !- Handle
  Compliance Insulation R9.83,            !- Name
  MediumRough,                            !- Roughness
  0.03986911,                             !- Thickness {m}
  0.0230187710627394,                     !- Conductivity {W/m-K}
  16.0184633739601,                       !- Density {kg/m3}
  1130.436,                               !- Specific Heat {J/kg-K}
  0.9,                                    !- Thermal Absorptance
  0.7,                                    !- Solar Absorptance
  0.8;                                    !- Visible Absorptance

OS:Material,
  {372333bb-1de3-4277-a193-6eb3071f3cb3}, !- Handle
  Metal Deck - 1/16 in.,                  !- Name
  MediumRough,                            !- Roughness
  0.0015875,                              !- Thickness {m}
  45.3452482589303,                       !- Conductivity {W/m-K}
  7820.53418843482,                       !- Density {kg/m3}
  502.416,                                !- Specific Heat {J/kg-K}
  0.9,                                    !- Thermal Absorptance
  0.7,                                    !- Solar Absorptance
  0.8;                                    !- Visible Absorptance

OS:Construction,
  {8c6190b9-a8f5-44a3-b691-16696e65cd8a}, !- Handle
  MetalFrameWallU062,                     !- Name
  ,                                       !- Surface Rendering Name
  {ea8b8686-eed3-4cc0-bb04-b4c140b106f1}, !- Layer 1
  {c0a6cf41-19cc-46cd-a54e-8f4634d60191}, !- Layer 2
  {4632aec3-1eb8-47a5-9477-0bbc81e5ca50}, !- Layer 3
  {1e38e3fc-57d2-471f-9e8e-9dcaf781d222}; !- Layer 4

OS:Construction,
  {cb5086eb-3183-4f50-9063-150fb9b83113}, !- Handle
  MetalFrameWallU069,                     !- Name
  ,                                       !- Surface Rendering Name
  {62995271-5365-409d-8679-fda0e820e029}, !- Layer 1
  {7ca6efba-8a74-48d4-b8d9-8514a276f05d}, !- Layer 2
  {9dfb69f9-3de8-4f6f-8286-682d2cca9849}, !- Layer 3
  {2efb2461-927f-49ce-88a4-e519d032b8b9}, !- Layer 4
  {6ec298bc-ca0d-463d-9534-972cdbe585ca}, !- Layer 5
  {18ec8a39-06d4-4889-b531-8426f1517ef3}, !- Layer 6
  {c30eab23-3d95-4f4d-9426-6c46c1ca63dc}; !- Layer 7

OS:Material,
  {62995271-5365-409d-8679-fda0e820e029}, !- Handle
  Stucco - 7/8 in. 1,                     !- Name
  MediumRough,                            !- Roughness
  0.022352,                               !- Thickness {m}
  0.700947539880412,                      !- Conductivity {W/m-K}
  1855.09824333832,                       !- Density {kg/m3}
  837.36,                                 !- Specific Heat {J/kg-K}
  0.9,                                    !- Thermal Absorptance
  0.7,                                    !- Solar Absorptance
  0.8;                                    !- Visible Absorptance

OS:Material,
  {18ec8a39-06d4-4889-b531-8426f1517ef3}, !- Handle
  Air - Metal Wall Framing - 16 or 24 in. OC 1, !- Name
  Smooth,                                 !- Roughness
  0.1397,                                 !- Thickness {m}
  1.22016793979183,                       !- Conductivity {W/m-K}
  1.28147706991681,                       !- Density {kg/m3}
  1004.832;                               !- Specific Heat {J/kg-K}

OS:Material,
  {c30eab23-3d95-4f4d-9426-6c46c1ca63dc}, !- Handle
  Gypsum Board - 1/2 in. 1,               !- Name
  Smooth,                                 !- Roughness
  0.0127,                                 !- Thickness {m}
  0.158656446866265,                      !- Conductivity {W/m-K}
  640.738534958406,                       !- Density {kg/m3}
  1130.436,                               !- Specific Heat {J/kg-K}
  0.9,                                    !- Thermal Absorptance
  0.7,                                    !- Solar Absorptance
  0.8;                                    !- Visible Absorptance

OS:Construction,
  {54e8cf12-17d8-4098-bb29-8969e0b83ea2}, !- Handle
  MetalFrameWallInterior,                 !- Name
  ,                                       !- Surface Rendering Name
  {a29e6d00-2d57-4be7-ad43-b491f84eeb20}, !- Layer 1
  {3f25a4f7-02a2-446b-b102-a32ff45b6338}, !- Layer 2
  {a29e6d00-2d57-4be7-ad43-b491f84eeb20}; !- Layer 3

OS:Material,
  {3f25a4f7-02a2-446b-b102-a32ff45b6338}, !- Handle
  Air - Metal Wall Framing - 16 or 24 in. OC 2, !- Name
  Smooth,                                 !- Roughness