
OS:Version,
  {cf73e728-1c39-432e-9fe9-8e9e393d883d}, !- Handle
  2.7.2;                                  !- Version Identifier

OS:SimulationControl,
  {d872bd42-2531-496c-9624-74d2c05cab8e}, !- Handle
  ,                                       !- Do Zone Sizing Calculation
  ,                                       !- Do System Sizing Calculation
  ,                                       !- Do Plant Sizing Calculation
  No,                                     !- Run Simulation for Sizing Periods
  Yes,                                    !- Run Simulation for Weather File Run Periods
  ,                                       !- Loads Convergence Tolerance Value
  ,                                       !- Temperature Convergence Tolerance Value {deltaC}
  FullExterior,                           !- Solar Distribution
  50;                                     !- Maximum Number of Warmup Days

OS:YearDescription,
  {8512160d-bbdd-498d-88f9-3a0c784df873}, !- Handle
  2009,                                   !- Calendar Year
  ,                                       !- Day of Week for Start Day
  ;                                       !- Is Leap Year

OS:RunPeriod,
  {c3e77b07-6fc7-46f5-8c13-fbc86e90c496}, !- Handle
  BLUE-CANYON_725845_CZ2010,              !- Name
  1,                                      !- Begin Month
  1,                                      !- Begin Day of Month
  12,                                     !- End Month
  31,                                     !- End Day of Month
  No,                                     !- Use Weather File Holidays and Special Days
  No,                                     !- Use Weather File Daylight Saving Period
  Yes,                                    !- Apply Weekend Holiday Rule
  ,                                       !- Use Weather File Rain Indicators
  ,                                       !- Use Weather File Snow Indicators
  ;                                       !- Number of Times Runperiod to be Repeated

OS:Site,
  {cfdb7636-8d90-479e-8b9a-58e47c1f4f18}, !- Handle
  BLUE-CANYON-AP Design_Conditions,       !- Name
  39.28,                                  !- Latitude {deg}
  -120.72,                                !- Longitude {deg}
  -8,                                     !- Time Zone {hr}
  1609.0392,                              !- Elevation {m}
  ;                                       !- Terrain

OS:SizingPeriod:DesignDay,
  {5a84da88-074e-41a9-b98f-680d7e2aa791}, !- Handle
  BLUE-CANYON-AP Ann Htg 99.6% Condns DB, !- Name
  -6,                                     !- Maximum Dry-Bulb Temperature {C}
  0,                                      !- Daily Dry-Bulb Temperature Range {deltaC}
  -6,                                     !- Humidity Indicating Conditions at Maximum Dry-Bulb
  83431,                                  !- Barometric Pressure {Pa}
  2.9,                                    !- Wind Speed {m/s}
  67,                                     !- Wind Direction {deg}
  0,                                      !- Sky Clearness
  0,                                      !- Rain Indicator
  0,                                      !- Snow Indicator
  21,                                     !- Day of Month
  1,                                      !- Month
  WinterDesignDay,                        !- Day Type
  0,                                      !- Daylight Saving Time Indicator
  Wetbulb,                                !- Humidity Indicating Type
  ,                                       !- Humidity Indicating Day Schedule Name
  DefaultMultipliers,                     !- Dry-Bulb Temperature Range Modifier Type
  ,                                       !- Dry-Bulb Temperature Range Modifier Schedule Name
  ASHRAEClearSky;                         !- Solar Model Indicator

OS:SizingPeriod:DesignDay,
  {a778de40-c079-4b26-9259-77568084584a}, !- Handle
  BLUE-CANYON-AP Ann Clg 0.4% Condns DB=>MCWB, !- Name
  28.9,                                   !- Maximum Dry-Bulb Temperature {C}
  7.2,                                    !- Daily Dry-Bulb Temperature Range {deltaC}
  15.5,                                   !- Humidity Indicating Conditions at Maximum Dry-Bulb
  83431,                                  !- Barometric Pressure {Pa}
  3.2,                                    !- Wind Speed {m/s}
  270,                                    !- Wind Direction {deg}
  0,                                      !- Sky Clearness
  0,                                      !- Rain Indicator
  0,                                      !- Snow Indicator
  21,                                     !- Day of Month
  7,                                      !- Month
  SummerDesignDay,                        !- Day Type
  0,                                      !- Daylight Saving Time Indicator
  Wetbulb,                                !- Humidity Indicating Type
  ,                                       !- Humidity Indicating Day Schedule Name
  DefaultMultipliers,                     !- Dry-Bulb Temperature Range Modifier Type
  ,                                       !- Dry-Bulb Temperature Range Modifier Schedule Name
  ASHRAETau,                              !- Solar Model Indicator
  ,                                       !- Beam Solar Day Schedule Name
  ,                                       !- Diffuse Solar Day Schedule Name
  0.324,                                  !- ASHRAE Taub {dimensionless}
  2.564;                                  !- ASHRAE Taud {dimensionless}

OS:SizingPeriod:DesignDay,
  {9e4663eb-bd37-43f1-ae21-638e34133c9d}, !- Handle
  BLUE-CANYON-AP Ann Clg 0.4% Condns DP=>MCDB, !- Name
  22.5,                                   !- Maximum Dry-Bulb Temperature {C}
  7.2,                                    !- Daily Dry-Bulb Temperature Range {deltaC}
  13.2,                                   !- Humidity Indicating Conditions at Maximum Dry-Bulb
  83431,                                  !- Barometric Pressure {Pa}
  2.8,                                    !- Wind Speed {m/s}
  270,                                    !- Wind Direction {deg}
  0,                                      !- Sky Clearness
  0,                                      !- Rain Indicator
  0,                                      !- Snow Indicator
  21,                                     !- Day of Month
  7,                                      !- Month
  SummerDesignDay,                        !- Day Type
  0,                                      !- Daylight Saving Time Indicator
  Dewpoint,                               !- Humidity Indicating Type
  ,                                       !- Humidity Indicating Day Schedule Name
  DefaultMultipliers,                     !- Dry-Bulb Temperature Range Modifier Type
  ,                                       !- Dry-Bulb Temperature Range Modifier Schedule Name
  ASHRAETau,                              !- Solar Model Indicator
  ,                                       !- Beam Solar Day Schedule Name
  ,                                       !- Diffuse Solar Day Schedule Name
  0.324,                                  !- ASHRAE Taub {dimensionless}
  2.564;                                  !- ASHRAE Taud {dimensionless}

OS:SizingPeriod:DesignDay,
  {c9989c94-4f12-42d3-b6e0-011c3b2f204f}, !- Handle
  BLUE-CANYON-AP JUN Clg 0.4% Condns DB=>MCWB, !- Name
  29,                                     !- Maximum Dry-Bulb Temperature {C}
  0.9,                                    !- Daily Dry-Bulb Temperature Range {deltaC}
  16.1,                                   !- Humidity Indicating Conditions at Maximum Dry-Bulb
  83431,                                  !- Barometric Pressure {Pa}
  2.4,                                    !- Wind Speed {m/s}
  225,                                    !- Wind Direction {deg}
  0,                                      !- Sky Clearness
  0,                                      !- Rain Indicator
  0,                                      !- Snow Indicator
  21,                                     !- Day of Month
  6,                                      !- Month
  SummerDesignDay,                        !- Day Type
  0,                                      !- Daylight Saving Time Indicator
  Wetbulb,                                !- Humidity Indicating Type
  ,                                       !- Humidity Indicating Day Schedule Name
  DefaultMultipliers,                     !- Dry-Bulb Temperature Range Modifier Type
  ,                                       !- Dry-Bulb Temperature Range Modifier Schedule Name
  ASHRAETau,                              !- Solar Model Indicator
  ,                                       !- Beam Solar Day Schedule Name
  ,                                       !- Diffuse Solar Day Schedule Name
  0.307,                                  !- ASHRAE Taub {dimensionless}
  2.666;                                  !- ASHRAE Taud {dimensionless}

OS:SizingPeriod:DesignDay,
  {aa9cad65-4eca-4134-aea3-642134fd2897}, !- Handle
  BLUE-CANYON-AP JUL Clg 0.4% Condns DB=>MCWB, !- Name
  31,                                     !- Maximum Dry-Bulb Temperature {C}
  7.2,                                    !- Daily Dry-Bulb Temperature Range {deltaC}
  15.5,                                   !- Humidity Indicating Conditions at Maximum Dry-Bulb
  83431,                                  !- Barometric Pressure {Pa}
  2.6,                                    !- Wind Speed {m/s}
  225,                                    !- Wind Direction {deg}
  0,                                      !- Sky Clearness
  0,                                      !- Rain Indicator
  0,                                      !- Snow Indicator
  21,                                     !- Day of Month
  7,                                      !- Month
  SummerDesignDay,                        !- Day Type
  0,                                      !- Daylight Saving Time Indicator
  Wetbulb,                                !- Humidity Indicating Type
  ,                                       !- Humidity Indicating Day Schedule Name
  DefaultMultipliers,                     !- Dry-Bulb Temperature Range Modifier Type
  ,                                       !- Dry-Bulb Temperature Range Modifier Schedule Name
  ASHRAETau,                              !- Solar Model Indicator
  ,                                       !- Beam Solar Day Schedule Name
  ,                                       !- Diffuse Solar Day Schedule Name
  0.324,                                  !- ASHRAE Taub {dimensionless}
  2.564;                                  !- ASHRAE Taud {dimensionless}

OS:SizingPeriod:DesignDay,
  {14996c89-f35c-4452-8a7c-02cbc618540c}, !- Handle
  BLUE-CANYON-AP AUG Clg 0.4% Condns DB=>MCWB, !- Name
  30.1,                                   !- Maximum Dry-Bulb Temperature {C}
  8,                                      !- Daily Dry-Bulb Temperature Range {deltaC}
  14.6,                                   !- Humidity Indicating Conditions at Maximum Dry-Bulb
  83431,                                  !- Barometric Pressure {Pa}
  3.1,                                    !- Wind Speed {m/s}
  270,                                    !- Wind Direction {deg}
  0,                                      !- Sky Clearness
  0,                                      !- Rain Indicator
  0,                                      !- Snow Indicator
  21,                                     !- Day of Month
  8,                                      !- Month
  SummerDesignDay,                        !- Day Type
  0,                                      !- Daylight Saving Time Indicator
  Wetbulb,                                !- Humidity Indicating Type
  ,                                       !- Humidity Indicating Day Schedule Name
  DefaultMultipliers,                     !- Dry-Bulb Temperature Range Modifier Type
  ,                                       !- Dry-Bulb Temperature Range Modifier Schedule Name
  ASHRAETau,                              !- Solar Model Indicator
  ,                                       !- Beam Solar Day Schedule Name
  ,                                       !- Diffuse Solar Day Schedule Name
  0.319,                                  !- ASHRAE Taub {dimensionless}
  2.602;                                  !- ASHRAE Taud {dimensionless}

OS:SizingPeriod:DesignDay,
  {a92a4aa2-3336-44e8-a60a-271dda3a108b}, !- Handle
  BLUE-CANYON-AP SEP Clg 0.4% Condns DB=>MCWB, !- Name
  28.6,                                   !- Maximum Dry-Bulb Temperature {C}
  6.5,                                    !- Daily Dry-Bulb Temperature Range {deltaC}
  13.4,                                   !- Humidity Indicating Conditions at Maximum Dry-Bulb
  83431,                                  !- Barometric Pressure {Pa}
  2.5,                                    !- Wind Speed {m/s}
  270,                                    !- Wind Direction {deg}
  0,                                      !- Sky Clearness
  0,                                      !- Rain Indicator
  0,                                      !- Snow Indicator
  21,                                     !- Day of Month
  9,                                      !- Month
  SummerDesignDay,                        !- Day Type
  0,                                      !- Daylight Saving Time Indicator
  Wetbulb,                                !- Humidity Indicating Type
  ,                                       !- Humidity Indicating Day Schedule Name
  DefaultMultipliers,                     !- Dry-Bulb Temperature Range Modifier Type
  ,                                       !- Dry-Bulb Temperature Range Modifier Schedule Name
  ASHRAETau,                              !- Solar Model Indicator
  ,                                       !- Beam Solar Day Schedule Name
  ,                                       !- Diffuse Solar Day Schedule Name
  0.303,                                  !- ASHRAE Taub {dimensionless}
  2.691;                                  !- ASHRAE Taud {dimensionless}

OS:SizingPeriod:DesignDay,
  {d9763c83-12b8-46f4-a6ce-82bfd5ef3fce}, !- Handle
  BLUE-CANYON-AP OCT Clg 0.4% Condns DB=>MCWB, !- Name
  24.8,                                   !- Maximum Dry-Bulb Temperature {C}
  5.8,                                    !- Daily Dry-Bulb Temperature Range {deltaC}
  11,                                     !- Humidity Indicating Conditions at Maximum Dry-Bulb
  83431,                                  !- Barometric Pressure {Pa}
  3.1,                                    !- Wind Speed {m/s}
  22,                                     !- Wind Direction {deg}
  0,                                      !- Sky Clearness
  0,                                      !- Rain Indicator
  0,                                      !- Snow Indicator
  21,                                     !- Day of Month
  10,                                     !- Month
  SummerDesignDay,                        !- Day Type
  0,                                      !- Daylight Saving Time Indicator
  Wetbulb,                                !- Humidity Indicating Type
  ,                                       !- Humidity Indicating Day Schedule Name
  DefaultMultipliers,                     !- Dry-Bulb Temperature Range Modifier Type
  ,                                       !- Dry-Bulb Temperature Range Modifier Schedule Name
  ASHRAETau,                              !- Solar Model Indicator
  ,                                       !- Beam Solar Day Schedule Name
  ,                                       !- Diffuse Solar Day Schedule Name
  0.291,                                  !- ASHRAE Taub {dimensionless}
  2.655;                                  !- ASHRAE Taud {dimensionless}

OS:SizingPeriod:DesignDay,
  {a992d4b8-043d-4e03-bf57-245324965229}, !- Handle
  BLUE-CANYON-AP NOV Clg 0.4% Condns DB=>MCWB, !- Name
  20.1,                                   !- Maximum Dry-Bulb Temperature {C}
  4.5,                                    !- Daily Dry-Bulb Temperature Range {deltaC}
  8.4,                                    !- Humidity Indicating Conditions at Maximum Dry-Bulb
  83431,                                  !- Barometric Pressure {Pa}
  2,                                      !- Wind Speed {m/s}
  67,                                     !- Wind Direction {deg}
  0,                                      !- Sky Clearness
  0,                                      !- Rain Indicator
  0,                                      !- Snow Indicator
  21,                                     !- Day of Month
  11,                                     !- Month
  SummerDesignDay,                        !- Day Type
  0,                                      !- Daylight Saving Time Indicator
  Wetbulb,                                !- Humidity Indicating Type
  ,                                       !- Humidity Indicating Day Schedule Name
  DefaultMultipliers,                     !- Dry-Bulb Temperature Range Modifier Type
  ,                                       !- Dry-Bulb Temperature Range Modifier Schedule Name
  ASHRAETau,                              !- Solar Model Indicator
  ,                                       !- Beam Solar Day Schedule Name
  ,                                       !- Diffuse Solar Day Schedule Name
  0.269,                                  !- ASHRAE Taub {dimensionless}
  2.764;                                  !- ASHRAE Taud {dimensionless}

OS:WeatherFile,
  {0ce44573-78b7-46a8-81f5-dbe63a4119d3}, !- Handle
  BLUE-CANYON-AP,                         !- City
  -,                                      !- State Province Region
  USA,                                    !- Country
  Custom-725845,                          !- Data Source
  725845,                                 !- WMO Number
  39.3,                                   !- Latitude {deg}
  -120.72,                                !- Longitude {deg}
  -8,                                     !- Time Zone {hr}
  1609,                                   !- Elevation {m}
  file:///C:/Users/mnakajima/Documents/CBECC-Com 2019 Data/EPW/BLUE-CANYON_725845_CZ2010.epw, !- Url
  BA565E13;                               !- Checksum

OS:Sizing:Parameters,
  {4c632275-0a9e-4678-8ee6-12dd2af9dd2e}, !- Handle
  1,                                      !- Heating Sizing Factor
  1;                                      !- Cooling Sizing Factor

OS:Material,
  {2491e37a-c1a3-49cd-9520-dbdb389dad9a}, !- Handle
  Gypsum Board - 1/2 in.,                 !- Name
  Smooth,                                 !- Roughness
  0.0127,                                 !- Thickness {m}
  0.158656446866265,                      !- Conductivity {W/m-K}
  640.738534958406,                       !- Density {kg/m3}
  1130.436,                               !- Specific Heat {J/kg-K}
  0.9,                                    !- Thermal Absorptance
  0.7,                                    !- Solar Absorptance
  0.8;                                    !- Visible Absorptance

OS:Material,
  {f5939870-b357-4296-9446-c4812c4a9a58}, !- Handle
  Gypsum Board - 5/8 in.,                 !- Name
  MediumRough,                            !- Roughness
  0.016002,                               !- Thickness {m}
  0.158656446866265,                      !- Conductivity {W/m-K}
  640.738534958406,                       !- Density {kg/m3}
  1130.436,                               !- Specific Heat {J/kg-K}
  0.9,                                    !- Thermal Absorptance
  0.7,                                    !- Solar Absorptance
  0.8;                                    !- Visible Absorptance

OS:Material,
  {bafb61d8-2f47-480a-85ba-f28487bd6ed9}, !- Handle
  Stucco - 7/8 in.,                       !- Name
  MediumRough,                            !- Roughness
  0.022352,                               !- Thickness {m}
  0.700947539880412,                      !- Conductivity {W/m-K}
  1855.09824333832,                       !- Density {kg/m3}
  837.36,                                 !- Specific Heat {J/kg-K}
  0.9,                                    !- Thermal Absorptance
  0.7,                                    !- Solar Absorptance
  0.8;                                    !- Visible Absorptance

OS:Material,
  {48bef7f3-24e1-4d9e-ac2e-b8ec4ceb12c5}, !- Handle
  Carpet - 3/4 in.,                       !- Name
  Smooth,                                 !- Roughness
  0.01905,                                !- Thickness {m}
  0.0455183217255675,                     !- Conductivity {W/m-K}
  288.332340731283,                       !- Density {kg/m3}
  1381.644,                               !- Specific Heat {J/kg-K}
  0.9,                                    !- Thermal Absorptance
  0.7,                                    !- Solar Absorptance
  0.8;                                    !- Visible Absorptance

OS:Material,
  {b4cab323-37d8-45a9-86a6-e634c9c3bbe3}, !- Handle
  Plywood - 5/8 in.,                      !- Name
  Smooth,                                 !- Roughness
  0.016002,                               !- Thickness {m}
  0.115440002246971,                      !- Conductivity {W/m-K}
  480.553901218804,                       !- Density {kg/m3}
  1884.06;                                !- Specific Heat {J/kg-K}

OS:Material,
  {f9fcfc57-984a-44c5-9b69-6f5c19bafe34}, !- Handle
  Concrete - 140 lb/ft3 - 4 in.,          !- Name
  Smooth,                                 !- Roughness
  0.1016,                                 !- Thickness {m}
  1.95140333633374,                       !- Conductivity {W/m-K}
  2239.06081041215,                       !- Density {kg/m3}
  921.096;                                !- Specific Heat {J/kg-K}

OS:Material,
  {9bd1a43c-ec81-49fb-a186-78ce74934c9e}, !- Handle
  Compliance Insulation R0.20,            !- Name
  Smooth,                                 !- Roughness
  0.000810768,                            !- Thickness {m}
  0.0230187710627394,                     !- Conductivity {W/m-K}
  16.0184633739601,                       !- Density {kg/m3}
  1130.436;                               !- Specific Heat {J/kg-K}

OS:Material,
  {d61e1989-052c-4c3b-ad72-783ad447015e}, !- Handle
  Compliance Insulation R0.10,            !- Name
  Smooth,                                 !- Roughness
  0.000405384,                            !- Thickness {m}
  0.0230187710627394,                     !- Conductivity {W/m-K}
  16.0184633739601,                       !- Density {kg/m3}
  1130.436;                               !- Specific Heat {J/kg-K}

OS:Material,
  {aba95585-faab-4355-a4cc-4196d1e80f06}, !- Handle
  Concrete - Solid Grout - 115 lb/ft3 - 8 in., !- Name
  Smooth,                                 !- Roughness
  0.2032,                                 !- Thickness {m}
  1.31570449337553,                       !- Conductivity {W/m-K}
  1858.14175137938,                       !- Density {kg/m3}
  837.36;                                 !- Specific Heat {J/kg-K}

OS:Material,
  {fcd5ecdd-e3ae-4813-923f-2fcdc9e6fb9a}, !- Handle
  Compliance Insulation R13.99,           !- Name
  Smooth,                                 !- Roughness
  0.05671312,                             !- Thickness {m}
  0.0230187710627394,                     !- Conductivity {W/m-K}
  16.0184633739601,                       !- Density {kg/m3}
  1130.436;                               !- Specific Heat {J/kg-K}

OS:Material,
  {fefef4cb-4096-4aab-a3bf-30de2bf338f3}, !- Handle
  Air - Metal Wall Framing - 16 or 24 in. OC, !- Name
  Smooth,                                 !- Roughness
  0.1397,                                 !- Thickness {m}
  1.22016793979183,                       !- Conductivity {W/m-K}
  1.28147706991681,                       !- Density {kg/m3}
  1004.832;                               !- Specific Heat {J/kg-K}

OS:Material,
  {6dd602ba-0165-4023-98d2-7a0e01f0779c}, !- Handle
  Compliance Insulation R10.06,           !- Name
  Smooth,                                 !- Roughness
  0.040781732,                            !- Thickness {m}
  0.0230187710627394,                     !- Conductivity {W/m-K}
  16.0184633739601,                       !- Density {kg/m3}
  1130.436;                               !- Specific Heat {J/kg-K}

OS:Material,
  {6ee3887a-08c2-4f85-b97b-d1321762918c}, !- Handle
  Compliance Insulation R2.00,            !- Name
  Smooth,                                 !- Roughness
  0.00810768,                             !- Thickness {m}
  0.0230187710627394,                     !- Conductivity {W/m-K}
  16.0184633739601,                       !- Density {kg/m3}
  1130.436;                               !- Specific Heat {J/kg-K}

OS:Material,
  {d66d7efa-8b9b-4d83-aae2-ec39b377b805}, !- Handle
  Metal Standing Seam - 1/16 in.,         !- Name
  MediumRough,                            !- Roughness
  0.0015875,                              !- Thickness {m}
  2.21534037295537,                       !- Conductivity {W/m-K}
  7820.53418843482,                       !- Density {kg/m3}
  502.416,                                !- Specific Heat {J/kg-K}
  0.85,                                   !- Thermal Absorptance
  0.37,                                   !- Solar Absorptance
  0.85;                                   !- Visible Absorptance

OS:Material,
  {59cdae21-ee63-4d12-b0bd-296f57efbf96}, !- Handle
  Compliance Insulation R34.93,           !- Name
  Smooth,                                 !- Roughness
  0.141600682,                            !- Thickness {m}
  0.0230187710627394,                     !- Conductivity {W/m-K}
  16.0184633739601,                       !- Density {kg/m3}
  1130.436,                               !- Specific Heat {J/kg-K}
  0.9,                                    !- Thermal Absorptance
  0.7,                                    !- Solar Absorptance
  0.8;                                    !- Visible Absorptance

OS:Material,
  {dba6321b-61ea-472b-a5e9-6a4ad4fd92b4}, !- Handle
  Compliance Insulation R28.63,           !- Name
  Smooth,                                 !- Roughness
  0.11606149,                             !- Thickness {m}
  0.0230187710627394,                     !- Conductivity {W/m-K}
  16.0184633739601,                       !- Density {kg/m3}
  1130.436,                               !- Specific Heat {J/kg-K}
  0.9,                                    !- Thermal Absorptance
  0.7,                                    !- Solar Absorptance
  0.8;                                    !- Visible Absorptance

OS:Material,
  {fd1b893f-b16c-45a9-a934-8c5dd1f88196}, !- Handle
  Compliance Insulation R21.39,           !- Name
  MediumRough,                            !- Roughness
  0.086711536,                            !- Thickness {m}
  0.0230187710627394,                     !- Conductivity {W/m-K}
  16.0184633739601,                       !- Density {kg/m3}
  1130.436,                               !- Specific Heat {J/kg-K}
  0.9,                                    !- Thermal Absorptance
  0.7,                                    !- Solar Absorptance
  0.8;                                    !- Visible Absorptance

OS:Material,
  {fb3e4a67-310a-45bc-81ab-74450814093c}, !- Handle
  Metal Deck - 1/16 in.,                  !- Name
  MediumRough,                            !- Roughness
  0.0015875,                              !- Thickness {m}
  45.3452482589303,                       !- Conductivity {W/m-K}
  7820.53418843482,                       !- Density {kg/m3}
  502.416,                                !- Specific Heat {J/kg-K}
  0.9,                                    !- Thermal Absorptance
  0.7,                                    !- Solar Absorptance
  0.8;                                    !- Visible Absorptance

OS:Construction,
  {b9bb06c4-625d-477e-a397-4cbec71ccc7b}, !- Handle
  MetalFrameWallU062,                     !- Name
  ,                                       !- Surface Rendering Name
  {bafb61d8-2f47-480a-85ba-f28487bd6ed9}, !- Layer 1
  {fcd5ecdd-e3ae-4813-923f-2fcdc9e6fb9a}, !- Layer 2
  {fefef4cb-4096-4aab-a3bf-30de2bf338f3}, !- Layer 3
  {2491e37a-c1a3-49cd-9520-dbdb389dad9a}; !- Layer 4

OS:Construction,
  {6213dafb-c92d-4d26-a07d-613a828ebb51}, !- Handle
  MetalFrameWallU069,                     !- Name
  ,                                       !- Surface Rendering Name
  {2e314e48-901c-4b4f-abdb-7b484317d643}, !- Layer 1
  {6dd602ba-0165-4023-98d2-7a0e01f0779c}, !- Layer 2
  {6ee3887a-08c2-4f85-b97b-d1321762918c}, !- Layer 3
  {9bd1a43c-ec81-49fb-a186-78ce74934c9e}, !- Layer 4
  {d61e1989-052c-4c3b-ad72-783ad447015e}, !- Layer 5
  {aa9d6103-1015-4019-82a9-4098558f17ff}, !- Layer 6
  {34cd409c-193e-49f3-826c-66792552d724}; !- Layer 7

OS:Material,
  {2e314e48-901c-4b4f-abdb-7b484317d643}, !- Handle
  Stucco - 7/8 in. 1,                     !- Name
  MediumRough,                            !- Roughness
  0.022352,                               !- Thickness {m}
  0.700947539880412,                      !- Conductivity {W/m-K}
  1855.09824333832,                       !- Density {kg/m3}
  837.36,                                 !- Specific Heat {J/kg-K}
  0.9,                                    !- Thermal Absorptance
  0.7,                                    !- Solar Absorptance
  0.8;                                    !- Visible Absorptance

OS:Material,
  {aa9d6103-1015-4019-82a9-4098558f17ff}, !- Handle
  Air - Metal Wall Framing - 16 or 24 in. OC 1, !- Name
  Smooth,                                 !- Roughness
  0.1397,                                 !- Thickness {m}
  1.22016793979183,                       !- Conductivity {W/m-K}
  1.28147706991681,                       !- Density {kg/m3}
  1004.832;                               !- Specific Heat {J/kg-K}

OS:Material,
  {34cd409c-193e-49f3-826c-66792552d724}, !- Handle
  Gypsum Board - 1/2 in. 1,               !- Name