
OS:Version,
  {9206fa82-f15f-4986-8d0e-6e7bc89e1100}, !- Handle
  2.7.2;                                  !- Version Identifier

OS:SimulationControl,
  {f66b34db-67bc-4308-b074-c8443228e94d}, !- Handle
  ,                                       !- Do Zone Sizing Calculation
  ,                                       !- Do System Sizing Calculation
  ,                                       !- Do Plant Sizing Calculation
  Yes,                                    !- Run Simulation for Sizing Periods
  No,                                     !- Run Simulation for Weather File Run Periods
  ,                                       !- Loads Convergence Tolerance Value
  ,                                       !- Temperature Convergence Tolerance Value {deltaC}
  FullExterior,                           !- Solar Distribution
  50;                                     !- Maximum Number of Warmup Days

OS:Site,
  {6a12e4bb-7a9d-4158-bb95-83913661979e}, !- Handle
  BLUE-CANYON-AP Design_Conditions,       !- Name
  39.28,                                  !- Latitude {deg}
  -120.72,                                !- Longitude {deg}
  -8,                                     !- Time Zone {hr}
  1609.0392,                              !- Elevation {m}
  ;                                       !- Terrain

OS:SizingPeriod:DesignDay,
  {51ac90e1-a0d9-4dde-b251-0aba604ff648}, !- Handle
  BLUE-CANYON-AP Ann Htg 99.6% Condns DB, !- Name
  -6,                                     !- Maximum Dry-Bulb Temperature {C}
  0,                                      !- Daily Dry-Bulb Temperature Range {deltaC}
  -6,                                     !- Humidity Indicating Conditions at Maximum Dry-Bulb
  83431,                                  !- Barometric Pressure {Pa}
  2.9,                                    !- Wind Speed {m/s}
  67,                                     !- Wind Direction {deg}
  0,                                      !- Sky Clearness
  0,                                      !- Rain Indicator
  0,                                      !- Snow Indicator
  21,                                     !- Day of Month
  1,                                      !- Month
  WinterDesignDay,                        !- Day Type
  0,                                      !- Daylight Saving Time Indicator
  Wetbulb,                                !- Humidity Indicating Type
  ,                                       !- Humidity Indicating Day Schedule Name
  DefaultMultipliers,                     !- Dry-Bulb Temperature Range Modifier Type
  ,                                       !- Dry-Bulb Temperature Range Modifier Schedule Name
  ASHRAEClearSky;                         !- Solar Model Indicator

OS:SizingPeriod:DesignDay,
  {70bfa424-9293-4ab8-a449-d0b4cae6fbc5}, !- Handle
  BLUE-CANYON-AP Ann Clg 0.4% Condns DB=>MCWB, !- Name
  28.9,                                   !- Maximum Dry-Bulb Temperature {C}
  7.2,                                    !- Daily Dry-Bulb Temperature Range {deltaC}
  15.5,                                   !- Humidity Indicating Conditions at Maximum Dry-Bulb
  83431,                                  !- Barometric Pressure {Pa}
  3.2,                                    !- Wind Speed {m/s}
  270,                                    !- Wind Direction {deg}
  0,                                      !- Sky Clearness
  0,                                      !- Rain Indicator
  0,                                      !- Snow Indicator
  21,                                     !- Day of Month
  7,                                      !- Month
  SummerDesignDay,                        !- Day Type
  0,                                      !- Daylight Saving Time Indicator
  Wetbulb,                                !- Humidity Indicating Type
  ,                                       !- Humidity Indicating Day Schedule Name
  DefaultMultipliers,                     !- Dry-Bulb Temperature Range Modifier Type
  ,                                       !- Dry-Bulb Temperature Range Modifier Schedule Name
  ASHRAETau,                              !- Solar Model Indicator
  ,                                       !- Beam Solar Day Schedule Name
  ,                                       !- Diffuse Solar Day Schedule Name
  0.324,                                  !- ASHRAE Taub {dimensionless}
  2.564;                                  !- ASHRAE Taud {dimensionless}

OS:SizingPeriod:DesignDay,
  {0d7c0a91-7b0c-42e7-b8a7-6dfe2ff28a54}, !- Handle
  BLUE-CANYON-AP Ann Clg 0.4% Condns DP=>MCDB, !- Name
  22.5,                                   !- Maximum Dry-Bulb Temperature {C}
  7.2,                                    !- Daily Dry-Bulb Temperature Range {deltaC}
  13.2,                                   !- Humidity Indicating Conditions at Maximum Dry-Bulb
  83431,                                  !- Barometric Pressure {Pa}
  2.8,                                    !- Wind Speed {m/s}
  270,                                    !- Wind Direction {deg}
  0,                                      !- Sky Clearness
  0,                                      !- Rain Indicator
  0,                                      !- Snow Indicator
  21,                                     !- Day of Month
  7,                                      !- Month
  SummerDesignDay,                        !- Day Type
  0,                                      !- Daylight Saving Time Indicator
  Dewpoint,                               !- Humidity Indicating Type
  ,                                       !- Humidity Indicating Day Schedule Name
  DefaultMultipliers,                     !- Dry-Bulb Temperature Range Modifier Type
  ,                                       !- Dry-Bulb Temperature Range Modifier Schedule Name
  ASHRAETau,                              !- Solar Model Indicator
  ,                                       !- Beam Solar Day Schedule Name
  ,                                       !- Diffuse Solar Day Schedule Name
  0.324,                                  !- ASHRAE Taub {dimensionless}
  2.564;                                  !- ASHRAE Taud {dimensionless}

OS:SizingPeriod:DesignDay,
  {d78127f9-3e06-47fa-a4a4-1e47ebf50315}, !- Handle
  BLUE-CANYON-AP JUN Clg 0.4% Condns DB=>MCWB, !- Name
  29,                                     !- Maximum Dry-Bulb Temperature {C}
  0.9,                                    !- Daily Dry-Bulb Temperature Range {deltaC}
  16.1,                                   !- Humidity Indicating Conditions at Maximum Dry-Bulb
  83431,                                  !- Barometric Pressure {Pa}
  2.4,                                    !- Wind Speed {m/s}
  225,                                    !- Wind Direction {deg}
  0,                                      !- Sky Clearness
  0,                                      !- Rain Indicator
  0,                                      !- Snow Indicator
  21,                                     !- Day of Month
  6,                                      !- Month
  SummerDesignDay,                        !- Day Type
  0,                                      !- Daylight Saving Time Indicator
  Wetbulb,                                !- Humidity Indicating Type
  ,                                       !- Humidity Indicating Day Schedule Name
  DefaultMultipliers,                     !- Dry-Bulb Temperature Range Modifier Type
  ,                                       !- Dry-Bulb Temperature Range Modifier Schedule Name
  ASHRAETau,                              !- Solar Model Indicator
  ,                                       !- Beam Solar Day Schedule Name
  ,                                       !- Diffuse Solar Day Schedule Name
  0.307,                                  !- ASHRAE Taub {dimensionless}
  2.666;                                  !- ASHRAE Taud {dimensionless}

OS:SizingPeriod:DesignDay,
  {b04ae431-3640-4858-9ed2-6f79f466284a}, !- Handle
  BLUE-CANYON-AP JUL Clg 0.4% Condns DB=>MCWB, !- Name
  31,                                     !- Maximum Dry-Bulb Temperature {C}
  7.2,                                    !- Daily Dry-Bulb Temperature Range {deltaC}
  15.5,                                   !- Humidity Indicating Conditions at Maximum Dry-Bulb
  83431,                                  !- Barometric Pressure {Pa}
  2.6,                                    !- Wind Speed {m/s}
  225,                                    !- Wind Direction {deg}
  0,                                      !- Sky Clearness
  0,                                      !- Rain Indicator
  0,                                      !- Snow Indicator
  21,                                     !- Day of Month
  7,                                      !- Month
  SummerDesignDay,                        !- Day Type
  0,                                      !- Daylight Saving Time Indicator
  Wetbulb,                                !- Humidity Indicating Type
  ,                                       !- Humidity Indicating Day Schedule Name
  DefaultMultipliers,                     !- Dry-Bulb Temperature Range Modifier Type
  ,                                       !- Dry-Bulb Temperature Range Modifier Schedule Name
  ASHRAETau,                              !- Solar Model Indicator
  ,                                       !- Beam Solar Day Schedule Name
  ,                                       !- Diffuse Solar Day Schedule Name
  0.324,                                  !- ASHRAE Taub {dimensionless}
  2.564;                                  !- ASHRAE Taud {dimensionless}

OS:SizingPeriod:DesignDay,
  {03b9e752-bb24-412b-be8a-bd83e105dd32}, !- Handle
  BLUE-CANYON-AP AUG Clg 0.4% Condns DB=>MCWB, !- Name
  30.1,                                   !- Maximum Dry-Bulb Temperature {C}
  8,                                      !- Daily Dry-Bulb Temperature Range {deltaC}
  14.6,                                   !- Humidity Indicating Conditions at Maximum Dry-Bulb
  83431,                                  !- Barometric Pressure {Pa}
  3.1,                                    !- Wind Speed {m/s}
  270,                                    !- Wind Direction {deg}
  0,                                      !- Sky Clearness
  0,                                      !- Rain Indicator
  0,                                      !- Snow Indicator
  21,                                     !- Day of Month
  8,                                      !- Month
  SummerDesignDay,                        !- Day Type
  0,                                      !- Daylight Saving Time Indicator
  Wetbulb,                                !- Humidity Indicating Type
  ,                                       !- Humidity Indicating Day Schedule Name
  DefaultMultipliers,                     !- Dry-Bulb Temperature Range Modifier Type
  ,                                       !- Dry-Bulb Temperature Range Modifier Schedule Name
  ASHRAETau,                              !- Solar Model Indicator
  ,                                       !- Beam Solar Day Schedule Name
  ,                                       !- Diffuse Solar Day Schedule Name
  0.319,                                  !- ASHRAE Taub {dimensionless}
  2.602;                                  !- ASHRAE Taud {dimensionless}

OS:SizingPeriod:DesignDay,
  {62d9e541-837c-4e0c-a77a-889cca2c6497}, !- Handle
  BLUE-CANYON-AP SEP Clg 0.4% Condns DB=>MCWB, !- Name
  28.6,                                   !- Maximum Dry-Bulb Temperature {C}
  6.5,                                    !- Daily Dry-Bulb Temperature Range {deltaC}
  13.4,                                   !- Humidity Indicating Conditions at Maximum Dry-Bulb
  83431,                                  !- Barometric Pressure {Pa}
  2.5,                                    !- Wind Speed {m/s}
  270,                                    !- Wind Direction {deg}
  0,                                      !- Sky Clearness
  0,                                      !- Rain Indicator
  0,                                      !- Snow Indicator
  21,                                     !- Day of Month
  9,                                      !- Month
  SummerDesignDay,                        !- Day Type
  0,                                      !- Daylight Saving Time Indicator
  Wetbulb,                                !- Humidity Indicating Type
  ,                                       !- Humidity Indicating Day Schedule Name
  DefaultMultipliers,                     !- Dry-Bulb Temperature Range Modifier Type
  ,                                       !- Dry-Bulb Temperature Range Modifier Schedule Name
  ASHRAETau,                              !- Solar Model Indicator
  ,                                       !- Beam Solar Day Schedule Name
  ,                                       !- Diffuse Solar Day Schedule Name
  0.303,                                  !- ASHRAE Taub {dimensionless}
  2.691;                                  !- ASHRAE Taud {dimensionless}

OS:SizingPeriod:DesignDay,
  {56ed148b-33bf-439b-b065-34d5fb0d2858}, !- Handle
  BLUE-CANYON-AP OCT Clg 0.4% Condns DB=>MCWB, !- Name
  24.8,                                   !- Maximum Dry-Bulb Temperature {C}
  5.8,                                    !- Daily Dry-Bulb Temperature Range {deltaC}
  11,                                     !- Humidity Indicating Conditions at Maximum Dry-Bulb
  83431,                                  !- Barometric Pressure {Pa}
  3.1,                                    !- Wind Speed {m/s}
  22,                                     !- Wind Direction {deg}
  0,                                      !- Sky Clearness
  0,                                      !- Rain Indicator
  0,                                      !- Snow Indicator
  21,                                     !- Day of Month
  10,                                     !- Month
  SummerDesignDay,                        !- Day Type
  0,                                      !- Daylight Saving Time Indicator
  Wetbulb,                                !- Humidity Indicating Type
  ,                                       !- Humidity Indicating Day Schedule Name
  DefaultMultipliers,                     !- Dry-Bulb Temperature Range Modifier Type
  ,                                       !- Dry-Bulb Temperature Range Modifier Schedule Name
  ASHRAETau,                              !- Solar Model Indicator
  ,                                       !- Beam Solar Day Schedule Name
  ,                                       !- Diffuse Solar Day Schedule Name
  0.291,                                  !- ASHRAE Taub {dimensionless}
  2.655;                                  !- ASHRAE Taud {dimensionless}

OS:SizingPeriod:DesignDay,
  {36b3f439-c6fc-42db-9822-5b9d6ed52f80}, !- Handle
  BLUE-CANYON-AP NOV Clg 0.4% Condns DB=>MCWB, !- Name
  20.1,                                   !- Maximum Dry-Bulb Temperature {C}
  4.5,                                    !- Daily Dry-Bulb Temperature Range {deltaC}
  8.4,                                    !- Humidity Indicating Conditions at Maximum Dry-Bulb
  83431,                                  !- Barometric Pressure {Pa}
  2,                                      !- Wind Speed {m/s}
  67,                                     !- Wind Direction {deg}
  0,                                      !- Sky Clearness
  0,                                      !- Rain Indicator
  0,                                      !- Snow Indicator
  21,                                     !- Day of Month
  11,                                     !- Month
  SummerDesignDay,                        !- Day Type
  0,                                      !- Daylight Saving Time Indicator
  Wetbulb,                                !- Humidity Indicating Type
  ,                                       !- Humidity Indicating Day Schedule Name
  DefaultMultipliers,                     !- Dry-Bulb Temperature Range Modifier Type
  ,                                       !- Dry-Bulb Temperature Range Modifier Schedule Name
  ASHRAETau,                              !- Solar Model Indicator
  ,                                       !- Beam Solar Day Schedule Name
  ,                                       !- Diffuse Solar Day Schedule Name
  0.269,                                  !- ASHRAE Taub {dimensionless}
  2.764;                                  !- ASHRAE Taud {dimensionless}

OS:WeatherFile,
  {e65f4060-005e-4b38-9e1e-034404376779}, !- Handle
  BLUE-CANYON-AP,                         !- City
  -,                                      !- State Province Region
  USA,                                    !- Country
  Custom-725845,                          !- Data Source
  725845,                                 !- WMO Number
  39.3,                                   !- Latitude {deg}
  -120.72,                                !- Longitude {deg}
  -8,                                     !- Time Zone {hr}
  1609,                                   !- Elevation {m}
  file:///C:/Users/agoyal/Documents/CBECC-Com 2019 Data/EPW/BLUE-CANYON_725845_CZ2010.epw, !- Url
  BA565E13;                               !- Checksum

OS:Sizing:Parameters,
  {4a1c206a-ce1a-4afd-9ca6-0fe04ce8b3ee}, !- Handle
  1,                                      !- Heating Sizing Factor
  1;                                      !- Cooling Sizing Factor

OS:Material,
  {d99b79fd-655c-4bea-8cc2-c26421f8e74c}, !- Handle
  Gypsum Board - 1/2 in.,                 !- Name
  Smooth,                                 !- Roughness
  0.0127,                                 !- Thickness {m}
  0.158656446866265,                      !- Conductivity {W/m-K}
  640.738534958406,                       !- Density {kg/m3}
  1130.436,                               !- Specific Heat {J/kg-K}
  0.9,                                    !- Thermal Absorptance
  0.7,                                    !- Solar Absorptance
  0.8;                                    !- Visible Absorptance

OS:Material,
  {f946be16-32ba-4f92-b300-375c590994f2}, !- Handle
  Gypsum Board - 5/8 in.,                 !- Name
  MediumRough,                            !- Roughness
  0.016002,                               !- Thickness {m}
  0.158656446866265,                      !- Conductivity {W/m-K}
  640.738534958406,                       !- Density {kg/m3}
  1130.436,                               !- Specific Heat {J/kg-K}
  0.9,                                    !- Thermal Absorptance
  0.7,                                    !- Solar Absorptance
  0.8;                                    !- Visible Absorptance

OS:Material,
  {10f8fd0a-b653-4bec-8171-ca11d93f99a1}, !- Handle
  Stucco - 7/8 in.,                       !- Name
  MediumRough,                            !- Roughness
  0.022352,                               !- Thickness {m}
  0.700947539880412,                      !- Conductivity {W/m-K}
  1855.09824333832,                       !- Density {kg/m3}
  837.36,                                 !- Specific Heat {J/kg-K}
  0.9,                                    !- Thermal Absorptance
  0.7,                                    !- Solar Absorptance
  0.8;                                    !- Visible Absorptance

OS:Material,
  {61873523-d1ea-4e36-84a6-47a12107b64a}, !- Handle
  Carpet - 3/4 in.,                       !- Name
  Smooth,                                 !- Roughness
  0.01905,                                !- Thickness {m}
  0.0455183217255675,                     !- Conductivity {W/m-K}
  288.332340731283,                       !- Density {kg/m3}
  1381.644,                               !- Specific Heat {J/kg-K}
  0.9,                                    !- Thermal Absorptance
  0.7,                                    !- Solar Absorptance
  0.8;                                    !- Visible Absorptance

OS:Material,
  {65ec2ec2-5924-4e1b-a364-4ccf6f2b13de}, !- Handle
  Plywood - 5/8 in.,                      !- Name
  Smooth,                                 !- Roughness
  0.016002,                               !- Thickness {m}
  0.115440002246971,                      !- Conductivity {W/m-K}
  480.553901218804,                       !- Density {kg/m3}
  1884.06;                                !- Specific Heat {J/kg-K}

OS:Material,
  {d75a0525-5292-4159-a7f6-2e84fd847229}, !- Handle
  Concrete - 140 lb/ft3 - 4 in.,          !- Name
  Smooth,                                 !- Roughness
  0.1016,                                 !- Thickness {m}
  1.95140333633374,                       !- Conductivity {W/m-K}
  2239.06081041215,                       !- Density {kg/m3}
  921.096;                                !- Specific Heat {J/kg-K}

OS:Material,
  {aa24cbe6-6854-4908-a840-7505efba18d6}, !- Handle
  Compliance Insulation R0.20,            !- Name
  Smooth,                                 !- Roughness
  0.000810768,                            !- Thickness {m}
  0.0230187710627394,                     !- Conductivity {W/m-K}
  16.0184633739601,                       !- Density {kg/m3}
  1130.436;                               !- Specific Heat {J/kg-K}

OS:Material,
  {90fc91cb-aab0-4a16-b414-3eb232e2046e}, !- Handle
  Compliance Insulation R0.10,            !- Name
  Smooth,                                 !- Roughness
  0.000405384,                            !- Thickness {m}
  0.0230187710627394,                     !- Conductivity {W/m-K}
  16.0184633739601,                       !- Density {kg/m3}
  1130.436;                               !- Specific Heat {J/kg-K}

OS:Material,
  {e2a030d2-7e6f-4009-9ded-ca01c8a6f636}, !- Handle
  Concrete - Solid Grout - 115 lb/ft3 - 8 in., !- Name
  Smooth,                                 !- Roughness
  0.2032,                                 !- Thickness {m}
  1.31570449337553,                       !- Conductivity {W/m-K}
  1858.14175137938,                       !- Density {kg/m3}
  837.36;                                 !- Specific Heat {J/kg-K}

OS:Material,
  {abeb8e94-ca60-4928-8cc9-3658b1b6a6cd}, !- Handle
  Compliance Insulation R13.99,           !- Name
  Smooth,                                 !- Roughness
  0.05671312,                             !- Thickness {m}
  0.0230187710627394,                     !- Conductivity {W/m-K}
  16.0184633739601,                       !- Density {kg/m3}
  1130.436;                               !- Specific Heat {J/kg-K}

OS:Material,
  {ce32b15a-dedc-4b0b-91d1-61992f9bb4eb}, !- Handle
  Air - Metal Wall Framing - 16 or 24 in. OC, !- Name
  Smooth,                                 !- Roughness
  0.1397,                                 !- Thickness {m}
  1.22016793979183,                       !- Conductivity {W/m-K}
  1.28147706991681,                       !- Density {kg/m3}
  1004.832;                               !- Specific Heat {J/kg-K}

OS:Material,
  {56b2c593-1206-4186-8291-52b75fba0540}, !- Handle
  Compliance Insulation R10.06,           !- Name
  Smooth,                                 !- Roughness
  0.040781732,                            !- Thickness {m}
  0.0230187710627394,                     !- Conductivity {W/m-K}
  16.0184633739601,                       !- Density {kg/m3}
  1130.436;                               !- Specific Heat {J/kg-K}

OS:Material,
  {d97d73e0-b30a-41b3-879a-d6ae15037884}, !- Handle
  Compliance Insulation R2.00,            !- Name
  Smooth,                                 !- Roughness
  0.00810768,                             !- Thickness {m}
  0.0230187710627394,                     !- Conductivity {W/m-K}
  16.0184633739601,                       !- Density {kg/m3}
  1130.436;                               !- Specific Heat {J/kg-K}

OS:Material,
  {7faa32b5-4421-4f42-8b34-b4b1837ab490}, !- Handle
  Metal Standing Seam - 1/16 in.,         !- Name
  MediumRough,                            !- Roughness
  0.0015875,                              !- Thickness {m}
  2.21534037295537,                       !- Conductivity {W/m-K}
  7820.53418843482,                       !- Density {kg/m3}
  502.416,                                !- Specific Heat {J/kg-K}
  0.85,                                   !- Thermal Absorptance
  0.37,                                   !- Solar Absorptance
  0.85;                                   !- Visible Absorptance

OS:Material,
  {8273eecd-d271-42ab-9d34-aaab831d3599}, !- Handle
  Compliance Insulation R34.93,           !- Name
  Smooth,                                 !- Roughness
  0.141600682,                            !- Thickness {m}
  0.0230187710627394,                     !- Conductivity {W/m-K}
  16.0184633739601,                       !- Density {kg/m3}
  1130.436,                               !- Specific Heat {J/kg-K}
  0.9,                                    !- Thermal Absorptance
  0.7,                                    !- Solar Absorptance
  0.8;                                    !- Visible Absorptance

OS:Material,
  {2b6e849c-9fa4-40a0-992a-139087698818}, !- Handle
  Compliance Insulation R28.63,           !- Name
  Smooth,                                 !- Roughness
  0.11606149,                             !- Thickness {m}
  0.0230187710627394,                     !- Conductivity {W/m-K}
  16.0184633739601,                       !- Density {kg/m3}
  1130.436,                               !- Specific Heat {J/kg-K}
  0.9,                                    !- Thermal Absorptance
  0.7,                                    !- Solar Absorptance
  0.8;                                    !- Visible Absorptance

OS:Material,
  {edbd3c0e-b961-4b17-bc87-e09e2f6ecc9e}, !- Handle
  Compliance Insulation R21.39,           !- Name
  MediumRough,                            !- Roughness
  0.086711536,                            !- Thickness {m}
  0.0230187710627394,                     !- Conductivity {W/m-K}
  16.0184633739601,                       !- Density {kg/m3}
  1130.436,                               !- Specific Heat {J/kg-K}
  0.9,                                    !- Thermal Absorptance
  0.7,                                    !- Solar Absorptance
  0.8;                                    !- Visible Absorptance

OS:Material,
  {a2ff7e84-2097-4811-9da0-e08ea63f2907}, !- Handle
  Metal Deck - 1/16 in.,                  !- Name
  MediumRough,                            !- Roughness
  0.0015875,                              !- Thickness {m}
  45.3452482589303,                       !- Conductivity {W/m-K}
  7820.53418843482,                       !- Density {kg/m3}
  502.416,                                !- Specific Heat {J/kg-K}
  0.9,                                    !- Thermal Absorptance
  0.7,                                    !- Solar Absorptance
  0.8;                                    !- Visible Absorptance

OS:Construction,
  {ee3cf4f9-4723-4b90-a9bd-7453f8b06da8}, !- Handle
  MetalFrameWallU062,                     !- Name
  ,                                       !- Surface Rendering Name
  {10f8fd0a-b653-4bec-8171-ca11d93f99a1}, !- Layer 1
  {abeb8e94-ca60-4928-8cc9-3658b1b6a6cd}, !- Layer 2
  {ce32b15a-dedc-4b0b-91d1-61992f9bb4eb}, !- Layer 3
  {d99b79fd-655c-4bea-8cc2-c26421f8e74c}; !- Layer 4

OS:Construction,
  {4d574efa-3198-4d9a-81c0-167668a78cc2}, !- Handle
  MetalFrameWallU069,                     !- Name
  ,                                       !- Surface Rendering Name
  {37099958-4fe4-4f37-b2ae-05828ee90dcf}, !- Layer 1
  {56b2c593-1206-4186-8291-52b75fba0540}, !- Layer 2
  {d97d73e0-b30a-41b3-879a-d6ae15037884}, !- Layer 3
  {aa24cbe6-6854-4908-a840-7505efba18d6}, !- Layer 4
  {90fc91cb-aab0-4a16-b414-3eb232e2046e}, !- Layer 5
  {b036dbaf-3c7d-48f3-a90d-faedf106d1a2}, !- Layer 6
  {da5cb7ef-bddc-4e63-b534-35427caeeb4b}; !- Layer 7

OS:Material,
  {37099958-4fe4-4f37-b2ae-05828ee90dcf}, !- Handle
  Stucco - 7/8 in. 1,                     !- Name
  MediumRough,                            !- Roughness
  0.022352,                               !- Thickness {m}
  0.700947539880412,                      !- Conductivity {W/m-K}
  1855.09824333832,                       !- Density {kg/m3}
  837.36,                                 !- Specific Heat {J/kg-K}
  0.9,                                    !- Thermal Absorptance
  0.7,                                    !- Solar Absorptance
  0.8;                                    !- Visible Absorptance

OS:Material,
  {b036dbaf-3c7d-48f3-a90d-faedf106d1a2}, !- Handle
  Air - Metal Wall Framing - 16 or 24 in. OC 1, !- Name
  Smooth,                                 !- Roughness
  0.1397,                                 !- Thickness {m}
  1.22016793979183,                       !- Conductivity {W/m-K}
  1.28147706991681,                       !- Density {kg/m3}
  1004.832;                               !- Specific Heat {J/kg-K}

OS:Material,
  {da5cb7ef-bddc-4e63-b534-35427caeeb4b}, !- Handle
  Gypsum Board - 1/2 in. 1,               !- Name
  Smooth,                                 !- Roughness
  0.0127,                                 !- Thickness {m}
  0.158656446866265,                      !- Conductivity {W/m-K}
  640.738534958406,                       !- Density {kg/m3}
  1130.436,                               !- Specific Heat {J/kg-K}
  0.9,                                    !- Thermal Absorptance
  0.7,                                    !- Solar Absorptance
  0.8;                                    !- Visible Absorptance

OS:Construction,
  {3d4d94fe-c1ba-4f70-9fe8-8407d337e718}, !- Handle
  MetalFrameWallInterior,                 !- Name
  ,                                       !- Surface Rendering Name
  {f946be16-32ba-4f92-b300-375c590994f2}, !- Layer 1
  {2cefbe0d-2664-4d7a-b445-1c1ff0da9e2b}, !- Layer 2
  {f946be16-32ba-4f92-b300-375c590994f2}; !- Layer 3

OS:Material,
  {2cefbe0d-2664-4d7a-b445-1c1ff0da9e2b}, !- Handle
  Air - Metal Wall Framing - 16 or 24 in. OC 2, !- Name
  Smooth,                                 !- Roughness
  0.1397,                                 !- Thickness {m}