
OS:Version,
  {9651bbbf-7104-4734-8c2f-2486facc2374}, !- Handle
  2.7.2;                                  !- Version Identifier

OS:SimulationControl,
  {2e7915b3-69b3-4506-8499-4761395c1446}, !- Handle
  ,                                       !- Do Zone Sizing Calculation
  ,                                       !- Do System Sizing Calculation
  ,                                       !- Do Plant Sizing Calculation
  No,                                     !- Run Simulation for Sizing Periods
  Yes,                                    !- Run Simulation for Weather File Run Periods
  ,                                       !- Loads Convergence Tolerance Value
  ,                                       !- Temperature Convergence Tolerance Value {deltaC}
  FullExterior,                           !- Solar Distribution
  50;                                     !- Maximum Number of Warmup Days

OS:YearDescription,
  {aadfa7f1-758e-4de5-bf0a-eb30783e3cc8}, !- Handle
  2009,                                   !- Calendar Year
  ,                                       !- Day of Week for Start Day
  ;                                       !- Is Leap Year

OS:RunPeriod,
  {6dce796a-3b87-49dd-8f2d-c2e1bf9168c9}, !- Handle
  CTZ10S22A,                              !- Name
  1,                                      !- Begin Month
  1,                                      !- Begin Day of Month
  12,                                     !- End Month
  31,                                     !- End Day of Month
  No,                                     !- Use Weather File Holidays and Special Days
  No,                                     !- Use Weather File Daylight Saving Period
  Yes,                                    !- Apply Weekend Holiday Rule
  ,                                       !- Use Weather File Rain Indicators
  ,                                       !- Use Weather File Snow Indicators
  ;                                       !- Number of Times Runperiod to be Repeated

OS:Site,
  {71ea6721-b9dd-4a0a-ae5f-ff72983f1821}, !- Handle
  CA_RIVERSIDE-MUNI_USA Design_Conditions, !- Name
  33.95,                                  !- Latitude {deg}
  -117.43,                                !- Longitude {deg}
  -8,                                     !- Time Zone {hr}
  249.0216,                               !- Elevation {m}
  ;                                       !- Terrain

OS:SizingPeriod:DesignDay,
  {5de81db5-e297-4e97-beff-f3ab3fbc114f}, !- Handle
  CA_RIVERSIDE-MUNI Ann Htg 99.6% Condns DB, !- Name
  2.5,                                    !- Maximum Dry-Bulb Temperature {C}
  0,                                      !- Daily Dry-Bulb Temperature Range {deltaC}
  2.5,                                    !- Humidity Indicating Conditions at Maximum Dry-Bulb
  98369,                                  !- Barometric Pressure {Pa}
  1.1,                                    !- Wind Speed {m/s}
  120,                                    !- Wind Direction {deg}
  0,                                      !- Sky Clearness
  0,                                      !- Rain Indicator
  0,                                      !- Snow Indicator
  21,                                     !- Day of Month
  12,                                     !- Month
  WinterDesignDay,                        !- Day Type
  0,                                      !- Daylight Saving Time Indicator
  Wetbulb,                                !- Humidity Indicating Type
  ,                                       !- Humidity Indicating Day Schedule Name
  DefaultMultipliers,                     !- Dry-Bulb Temperature Range Modifier Type
  ,                                       !- Dry-Bulb Temperature Range Modifier Schedule Name
  ASHRAEClearSky;                         !- Solar Model Indicator

OS:SizingPeriod:DesignDay,
  {d46789b5-e0d7-4ee6-a23a-e944f750cd70}, !- Handle
  CA_RIVERSIDE-MUNI Ann Clg .4% Condns DB=>MWB, !- Name
  37.9,                                   !- Maximum Dry-Bulb Temperature {C}
  16.4,                                   !- Daily Dry-Bulb Temperature Range {deltaC}
  20.7,                                   !- Humidity Indicating Conditions at Maximum Dry-Bulb
  98369,                                  !- Barometric Pressure {Pa}
  4.5,                                    !- Wind Speed {m/s}
  270,                                    !- Wind Direction {deg}
  0,                                      !- Sky Clearness
  0,                                      !- Rain Indicator
  0,                                      !- Snow Indicator
  21,                                     !- Day of Month
  8,                                      !- Month
  SummerDesignDay,                        !- Day Type
  0,                                      !- Daylight Saving Time Indicator
  Wetbulb,                                !- Humidity Indicating Type
  ,                                       !- Humidity Indicating Day Schedule Name
  DefaultMultipliers,                     !- Dry-Bulb Temperature Range Modifier Type
  ,                                       !- Dry-Bulb Temperature Range Modifier Schedule Name
  ASHRAETau,                              !- Solar Model Indicator
  ,                                       !- Beam Solar Day Schedule Name
  ,                                       !- Diffuse Solar Day Schedule Name
  0.367,                                  !- ASHRAE Taub {dimensionless}
  2.46;                                   !- ASHRAE Taud {dimensionless}

OS:SizingPeriod:DesignDay,
  {4b5335db-8d58-46c8-89a7-a1b52cae8e0e}, !- Handle
  CA_RIVERSIDE-MUNI Ann Clg .4% Condns WB=>MDB, !- Name
  34.1,                                   !- Maximum Dry-Bulb Temperature {C}
  16.4,                                   !- Daily Dry-Bulb Temperature Range {deltaC}
  22.7,                                   !- Humidity Indicating Conditions at Maximum Dry-Bulb
  98369,                                  !- Barometric Pressure {Pa}
  4.5,                                    !- Wind Speed {m/s}
  270,                                    !- Wind Direction {deg}
  0,                                      !- Sky Clearness
  0,                                      !- Rain Indicator
  0,                                      !- Snow Indicator
  21,                                     !- Day of Month
  8,                                      !- Month
  SummerDesignDay,                        !- Day Type
  0,                                      !- Daylight Saving Time Indicator
  Wetbulb,                                !- Humidity Indicating Type
  ,                                       !- Humidity Indicating Day Schedule Name
  DefaultMultipliers,                     !- Dry-Bulb Temperature Range Modifier Type
  ,                                       !- Dry-Bulb Temperature Range Modifier Schedule Name
  ASHRAETau,                              !- Solar Model Indicator
  ,                                       !- Beam Solar Day Schedule Name
  ,                                       !- Diffuse Solar Day Schedule Name
  0.367,                                  !- ASHRAE Taub {dimensionless}
  2.46;                                   !- ASHRAE Taud {dimensionless}

OS:SizingPeriod:DesignDay,
  {e3e61e4f-a3b6-4730-bf7b-5687f896fd54}, !- Handle
  CA_RIVERSIDE-MUNI Ann Clg .4% Condns DP=>MDB, !- Name
  27.5,                                   !- Maximum Dry-Bulb Temperature {C}
  16.4,                                   !- Daily Dry-Bulb Temperature Range {deltaC}
  18.9,                                   !- Humidity Indicating Conditions at Maximum Dry-Bulb
  98369,                                  !- Barometric Pressure {Pa}
  4.5,                                    !- Wind Speed {m/s}
  270,                                    !- Wind Direction {deg}
  0,                                      !- Sky Clearness
  0,                                      !- Rain Indicator
  0,                                      !- Snow Indicator
  21,                                     !- Day of Month
  8,                                      !- Month
  SummerDesignDay,                        !- Day Type
  0,                                      !- Daylight Saving Time Indicator
  Dewpoint,                               !- Humidity Indicating Type
  ,                                       !- Humidity Indicating Day Schedule Name
  DefaultMultipliers,                     !- Dry-Bulb Temperature Range Modifier Type
  ,                                       !- Dry-Bulb Temperature Range Modifier Schedule Name
  ASHRAETau,                              !- Solar Model Indicator
  ,                                       !- Beam Solar Day Schedule Name
  ,                                       !- Diffuse Solar Day Schedule Name
  0.367,                                  !- ASHRAE Taub {dimensionless}
  2.46;                                   !- ASHRAE Taud {dimensionless}

OS:SizingPeriod:DesignDay,
  {27ec9c3d-7d28-4241-8cb6-7a4ddc7dfd17}, !- Handle
  CA_RIVERSIDE-MUNI June .4% Condns DB=>MCWB, !- Name
  36.8,                                   !- Maximum Dry-Bulb Temperature {C}
  14.8,                                   !- Daily Dry-Bulb Temperature Range {deltaC}
  20.4,                                   !- Humidity Indicating Conditions at Maximum Dry-Bulb
  98369,                                  !- Barometric Pressure {Pa}
  2.4,                                    !- Wind Speed {m/s}
  270,                                    !- Wind Direction {deg}
  0,                                      !- Sky Clearness
  0,                                      !- Rain Indicator
  0,                                      !- Snow Indicator
  21,                                     !- Day of Month
  6,                                      !- Month
  SummerDesignDay,                        !- Day Type
  0,                                      !- Daylight Saving Time Indicator
  Wetbulb,                                !- Humidity Indicating Type
  ,                                       !- Humidity Indicating Day Schedule Name
  DefaultMultipliers,                     !- Dry-Bulb Temperature Range Modifier Type
  ,                                       !- Dry-Bulb Temperature Range Modifier Schedule Name
  ASHRAETau,                              !- Solar Model Indicator
  ,                                       !- Beam Solar Day Schedule Name
  ,                                       !- Diffuse Solar Day Schedule Name
  0.362,                                  !- ASHRAE Taub {dimensionless}
  2.423;                                  !- ASHRAE Taud {dimensionless}

OS:SizingPeriod:DesignDay,
  {ba966c67-1738-4726-a89e-a03312ce373a}, !- Handle
  CA_RIVERSIDE-MUNI July .4% Condns DB=>MCWB, !- Name
  38.7,                                   !- Maximum Dry-Bulb Temperature {C}
  15.7,                                   !- Daily Dry-Bulb Temperature Range {deltaC}
  21.9,                                   !- Humidity Indicating Conditions at Maximum Dry-Bulb
  98369,                                  !- Barometric Pressure {Pa}
  2.4,                                    !- Wind Speed {m/s}
  270,                                    !- Wind Direction {deg}
  0,                                      !- Sky Clearness
  0,                                      !- Rain Indicator
  0,                                      !- Snow Indicator
  21,                                     !- Day of Month
  7,                                      !- Month
  SummerDesignDay,                        !- Day Type
  0,                                      !- Daylight Saving Time Indicator
  Wetbulb,                                !- Humidity Indicating Type
  ,                                       !- Humidity Indicating Day Schedule Name
  DefaultMultipliers,                     !- Dry-Bulb Temperature Range Modifier Type
  ,                                       !- Dry-Bulb Temperature Range Modifier Schedule Name
  ASHRAETau,                              !- Solar Model Indicator
  ,                                       !- Beam Solar Day Schedule Name
  ,                                       !- Diffuse Solar Day Schedule Name
  0.383,                                  !- ASHRAE Taub {dimensionless}
  2.428;                                  !- ASHRAE Taud {dimensionless}

OS:SizingPeriod:DesignDay,
  {79ec95cb-d321-4fce-81f0-b273c0c4f909}, !- Handle
  CA_RIVERSIDE-MUNI August .4% Condns DB=>MCWB, !- Name
  39.9,                                   !- Maximum Dry-Bulb Temperature {C}
  16.4,                                   !- Daily Dry-Bulb Temperature Range {deltaC}
  20.9,                                   !- Humidity Indicating Conditions at Maximum Dry-Bulb
  98369,                                  !- Barometric Pressure {Pa}
  2.2,                                    !- Wind Speed {m/s}
  270,                                    !- Wind Direction {deg}
  0,                                      !- Sky Clearness
  0,                                      !- Rain Indicator
  0,                                      !- Snow Indicator
  21,                                     !- Day of Month
  8,                                      !- Month
  SummerDesignDay,                        !- Day Type
  0,                                      !- Daylight Saving Time Indicator
  Wetbulb,                                !- Humidity Indicating Type
  ,                                       !- Humidity Indicating Day Schedule Name
  DefaultMultipliers,                     !- Dry-Bulb Temperature Range Modifier Type
  ,                                       !- Dry-Bulb Temperature Range Modifier Schedule Name
  ASHRAETau,                              !- Solar Model Indicator
  ,                                       !- Beam Solar Day Schedule Name
  ,                                       !- Diffuse Solar Day Schedule Name
  0.367,                                  !- ASHRAE Taub {dimensionless}
  2.46;                                   !- ASHRAE Taud {dimensionless}

OS:SizingPeriod:DesignDay,
  {069b78b3-2529-4abc-81ab-a00e6e1bb703}, !- Handle
  CA_RIVERSIDE-MUNI September .4% Condns DB=>MCWB, !- Name
  40.4,                                   !- Maximum Dry-Bulb Temperature {C}
  16.1,                                   !- Daily Dry-Bulb Temperature Range {deltaC}
  20.4,                                   !- Humidity Indicating Conditions at Maximum Dry-Bulb
  98369,                                  !- Barometric Pressure {Pa}
  1.9,                                    !- Wind Speed {m/s}
  270,                                    !- Wind Direction {deg}
  0,                                      !- Sky Clearness
  0,                                      !- Rain Indicator
  0,                                      !- Snow Indicator
  21,                                     !- Day of Month
  9,                                      !- Month
  SummerDesignDay,                        !- Day Type
  0,                                      !- Daylight Saving Time Indicator
  Wetbulb,                                !- Humidity Indicating Type
  ,                                       !- Humidity Indicating Day Schedule Name
  DefaultMultipliers,                     !- Dry-Bulb Temperature Range Modifier Type
  ,                                       !- Dry-Bulb Temperature Range Modifier Schedule Name
  ASHRAETau,                              !- Solar Model Indicator
  ,                                       !- Beam Solar Day Schedule Name
  ,                                       !- Diffuse Solar Day Schedule Name
  0.35,                                   !- ASHRAE Taub {dimensionless}
  2.494;                                  !- ASHRAE Taud {dimensionless}

OS:SizingPeriod:DesignDay,
  {c565e696-bba0-4f43-a7c4-11aa04996949}, !- Handle
  CA_RIVERSIDE-MUNI October .4% Condns DB=>MCWB, !- Name
  37.2,                                   !- Maximum Dry-Bulb Temperature {C}
  14.5,                                   !- Daily Dry-Bulb Temperature Range {deltaC}
  17.9,                                   !- Humidity Indicating Conditions at Maximum Dry-Bulb
  98369,                                  !- Barometric Pressure {Pa}
  1.9,                                    !- Wind Speed {m/s}
  270,                                    !- Wind Direction {deg}
  0,                                      !- Sky Clearness
  0,                                      !- Rain Indicator
  0,                                      !- Snow Indicator
  21,                                     !- Day of Month
  10,                                     !- Month
  SummerDesignDay,                        !- Day Type
  0,                                      !- Daylight Saving Time Indicator
  Wetbulb,                                !- Humidity Indicating Type
  ,                                       !- Humidity Indicating Day Schedule Name
  DefaultMultipliers,                     !- Dry-Bulb Temperature Range Modifier Type
  ,                                       !- Dry-Bulb Temperature Range Modifier Schedule Name
  ASHRAETau,                              !- Solar Model Indicator
  ,                                       !- Beam Solar Day Schedule Name
  ,                                       !- Diffuse Solar Day Schedule Name
  0.34,                                   !- ASHRAE Taub {dimensionless}
  2.493;                                  !- ASHRAE Taud {dimensionless}

OS:SizingPeriod:DesignDay,
  {5c796a3f-16ca-4d81-8ec3-f2d899c1f8cc}, !- Handle
  CA_RIVERSIDE-MUNI November .4% Condns DB=>MCWB, !- Name
  32.5,                                   !- Maximum Dry-Bulb Temperature {C}
  14,                                     !- Daily Dry-Bulb Temperature Range {deltaC}
  14.4,                                   !- Humidity Indicating Conditions at Maximum Dry-Bulb
  98369,                                  !- Barometric Pressure {Pa}
  1.9,                                    !- Wind Speed {m/s}
  270,                                    !- Wind Direction {deg}
  0,                                      !- Sky Clearness
  0,                                      !- Rain Indicator
  0,                                      !- Snow Indicator
  21,                                     !- Day of Month
  11,                                     !- Month
  SummerDesignDay,                        !- Day Type
  0,                                      !- Daylight Saving Time Indicator
  Wetbulb,                                !- Humidity Indicating Type
  ,                                       !- Humidity Indicating Day Schedule Name
  DefaultMultipliers,                     !- Dry-Bulb Temperature Range Modifier Type
  ,                                       !- Dry-Bulb Temperature Range Modifier Schedule Name
  ASHRAETau,                              !- Solar Model Indicator
  ,                                       !- Beam Solar Day Schedule Name
  ,                                       !- Diffuse Solar Day Schedule Name
  0.305,                                  !- ASHRAE Taub {dimensionless}
  2.582;                                  !- ASHRAE Taud {dimensionless}

OS:WeatherFile,
  {ff59c8b5-b1ec-40d3-8716-d1caa055f3cc}, !- Handle
  CA_RIVERSIDE-MUNI,                      !- City
  -,                                      !- State Province Region
  USA,                                    !- Country
  Custom-722869,                          !- Data Source
  722869,                                 !- WMO Number
  33.95,                                  !- Latitude {deg}
  -117.43,                                !- Longitude {deg}
  -8,                                     !- Time Zone {hr}
  249,                                    !- Elevation {m}
  file:///C:/Users/agoyal/OneDrive - TRC/Documents/CBECC-Com 2022 Data/EPW/CTZ10S22A.epw, !- Url
  309B2480;                               !- Checksum

OS:Sizing:Parameters,
  {b693c478-b4c2-44ee-b8ce-37be227b6058}, !- Handle
  1,                                      !- Heating Sizing Factor
  1;                                      !- Cooling Sizing Factor

OS:Material,
  {81714c0d-6425-49a2-8fec-b0a6f0da1f29}, !- Handle
  Gypsum Board - 1/2 in.,                 !- Name
  MediumRough,                            !- Roughness
  0.0127,                                 !- Thickness {m}
  0.158656446866265,                      !- Conductivity {W/m-K}
  640.738534958406,                       !- Density {kg/m3}
  1130.436,                               !- Specific Heat {J/kg-K}
  0.9,                                    !- Thermal Absorptance
  0.7,                                    !- Solar Absorptance
  0.8;                                    !- Visible Absorptance

OS:Material,
  {62e4fdf9-153e-40cb-aea5-65049e903b06}, !- Handle
  Gypsum Board - 5/8 in.,                 !- Name
  Smooth,                                 !- Roughness
  0.016002,                               !- Thickness {m}
  0.158656446866265,                      !- Conductivity {W/m-K}
  640.738534958406,                       !- Density {kg/m3}
  1130.436,                               !- Specific Heat {J/kg-K}
  0.9,                                    !- Thermal Absorptance
  0.7,                                    !- Solar Absorptance
  0.8;                                    !- Visible Absorptance

OS:Material,
  {f636b3f3-6980-42b2-8a89-a067f48b9d08}, !- Handle
  Stucco - 7/8 in.,                       !- Name
  MediumRough,                            !- Roughness
  0.022352,                               !- Thickness {m}
  0.700947539880412,                      !- Conductivity {W/m-K}
  1855.09824333832,                       !- Density {kg/m3}
  837.36,                                 !- Specific Heat {J/kg-K}
  0.9,                                    !- Thermal Absorptance
  0.7,                                    !- Solar Absorptance
  0.8;                                    !- Visible Absorptance

OS:Material,
  {faa8d38e-f88f-4dad-aa73-ca5c79d21888}, !- Handle
  Carpet - 3/4 in.,                       !- Name
  Smooth,                                 !- Roughness
  0.01905,                                !- Thickness {m}
  0.0455183217255675,                     !- Conductivity {W/m-K}
  288.332340731283,                       !- Density {kg/m3}
  1381.644,                               !- Specific Heat {J/kg-K}
  0.9,                                    !- Thermal Absorptance
  0.7,                                    !- Solar Absorptance
  0.8;                                    !- Visible Absorptance

OS:Material,
  {2a00b162-2e2a-4d95-91d9-d4748de323ac}, !- Handle
  Plywood - 5/8 in.,                      !- Name
  Smooth,                                 !- Roughness
  0.016002,                               !- Thickness {m}
  0.115440002246971,                      !- Conductivity {W/m-K}
  480.553901218804,                       !- Density {kg/m3}
  1884.06;                                !- Specific Heat {J/kg-K}

OS:Material,
  {98083778-bfba-4c62-8ecf-05f4e40db0c0}, !- Handle
  Compliance Insulation R1.54,            !- Name
  Smooth,                                 !- Roughness
  0.0062429136,                           !- Thickness {m}
  0.0230187710627394,                     !- Conductivity {W/m-K}
  16.0184633739601,                       !- Density {kg/m3}
  1130.436;                               !- Specific Heat {J/kg-K}

OS:Material,
  {c9e66f3c-b474-4836-99d6-53d83c03dd35}, !- Handle
  Compliance Insulation R1.00,            !- Name
  Smooth,                                 !- Roughness
  0.00405384,                             !- Thickness {m}
  0.0230187710627394,                     !- Conductivity {W/m-K}
  16.0184633739601,                       !- Density {kg/m3}
  1130.436;                               !- Specific Heat {J/kg-K}

OS:Material,
  {157ef041-f463-44ea-b328-b47e6c133b24}, !- Handle
  Compliance Insulation R1.35,            !- Name
  Smooth,                                 !- Roughness
  0.005472684,                            !- Thickness {m}
  0.0230187710627394,                     !- Conductivity {W/m-K}
  16.0184633739601,                       !- Density {kg/m3}
  1130.436;                               !- Specific Heat {J/kg-K}

OS:Material,
  {be6205eb-513f-4ca1-8639-eb355772d155}, !- Handle
  Compliance Insulation R3.00,            !- Name
  MediumRough,                            !- Roughness
  0.01216152,                             !- Thickness {m}
  0.0230187710627394,                     !- Conductivity {W/m-K}
  16.0184633739601,                       !- Density {kg/m3}
  1130.436,                               !- Specific Heat {J/kg-K}
  0.9,                                    !- Thermal Absorptance
  0.7,                                    !- Solar Absorptance
  0.8;                                    !- Visible Absorptance

OS:Material,
  {68b76236-fd3f-4930-8acc-d5bcb014f85a}, !- Handle
  Compliance Insulation R6.00,            !- Name
  Smooth,                                 !- Roughness
  0.02432304,                             !- Thickness {m}
  0.0230187710627394,                     !- Conductivity {W/m-K}
  16.0184633739601,                       !- Density {kg/m3}
  1130.436;                               !- Specific Heat {J/kg-K}

OS:Material:NoMass,
  {6106b579-ad41-40de-92ae-6302d8d9dd46}, !- Handle
  WoodFrameWall16inOC R11.25,             !- Name
  Smooth,                                 !- Roughness
  1.26865197459958;                       !- Thermal Resistance {m2-K/W}

OS:Material,
  {e7083f70-720a-48dc-9fed-df991f643eaa}, !- Handle
  Concrete - 140 lb/ft3 - 10 in.,         !- Name
  Smooth,                                 !- Roughness
  0.254,                                  !- Thickness {m}
  1.95140333633374,                       !- Conductivity {W/m-K}
  2239.06081041215,                       !- Density {kg/m3}
  921.096,                                !- Specific Heat {J/kg-K}
  0.9,                                    !- Thermal Absorptance
  0.7,                                    !- Solar Absorptance
  0.8;                                    !- Visible Absorptance

OS:Material:NoMass,
  {90c86e02-6136-49d8-af15-5470c31717c1}, !- Handle
  WoodRoof16OCCavInsR38,                  !- Name
  Smooth,                                 !- Roughness
  4.68171312301043,                       !- Thermal Resistance {m2-K/W}
  0.9,                                    !- Thermal Absorptance
  0.7,                                    !- Solar Absorptance
  0.8;                                    !- Visible Absorptance

OS:Material,
  {03d92416-ca3c-4d52-99fc-7a139269455b}, !- Handle
  Building Paper - 1/16 in.,              !- Name
  Smooth,                                 !- Roughness
  0.001524,                               !- Thickness {m}
  0.28851346888411,                       !- Conductivity {W/m-K}
  96.1107802437608,                       !- Density {kg/m3}
  1256.04;                                !- Specific Heat {J/kg-K}

OS:Material,
  {09668a24-5e0a-4e6f-baf4-8f7e49aa00b1}, !- Handle
  Fiberboard sheathing - 1/2 in.,         !- Name
  Smooth,                                 !- Roughness
  0.0127,                                 !- Thickness {m}
  0.0706139743879526,                     !- Conductivity {W/m-K}
  399.820845814045,                       !- Density {kg/m3}
  1297.908;                               !- Specific Heat {J/kg-K}

OS:Material,
  {d9399ca0-44b4-4d22-9225-1a59bbc297f9}, !- Handle
  Roofing felt - 1/8 in.,                 !- Name
  MediumRough,                            !- Roughness
  0.001524,                               !- Thickness {m}
  1.19714916872909,                       !- Conductivity {W/m-K}
  230.665872585026,                       !- Density {kg/m3}
  1256.04,                                !- Specific Heat {J/kg-K}
  0.75,                                   !- Thermal Absorptance
  0.37,                                   !- Solar Absorptance
  0.85;                                   !- Visible Absorptance

OS:Material:NoMass,
  {d0594559-2356-4a79-9f12-2a47dd859961}, !- Handle
  WoodFloor16inOCCavInsR0,                !- Name
  Smooth,                                 !- Roughness
  0.162021368987722;                      !- Thermal Resistance {m2-K/W}

OS:Material,
  {f6f00876-9c4c-4964-beee-3efb41719831}, !- Handle
  Stone - 1 in.,                          !- Name
  MediumRough,                            !- Roughness
  0.0254,                                 !- Thickness {m}
  1.80342552235899,                       !- Conductivity {W/m-K}
  2239.06081041215,                       !- Density {kg/m3}
  921.096,                                !- Specific Heat {J/kg-K}
  0.85,                                   !- Thermal Absorptance
  0.92,                                   !- Solar Absorptance
  0.85;                                   !- Visible Absorptance

OS:Material:NoMass,
  {77319406-3eee-4e23-b387-222ba8ccbf09}, !- Handle
  WoodFraming16inOC,                      !- Name
  Smooth,                                 !- Roughness
  0.14969365612996;                       !- Thermal Resistance {m2-K/W}

OS:Material,
  {250f25cc-ff7d-4640-a9b0-ace1b31ee5f8}, !- Handle
  Concrete - 140 lb/ft3 - 8 in.,          !- Name
  Smooth,                                 !- Roughness
  0.2032,                                 !- Thickness {m}
  1.95140333633374,                       !- Conductivity {W/m-K}
  2239.06081041215,                       !- Density {kg/m3}
  921.096;                                !- Specific Heat {J/kg-K}

OS:Material,
  {87ed7587-3c2a-4916-b210-183e5719c3cf}, !- Handle
  Concrete - 140 lb/ft3 - 4 in.,          !- Name
  Smooth,                                 !- Roughness
  0.1016,                                 !- Thickness {m}