
OS:Version,
  {cb44c6c9-4c4b-4d10-9756-d43bb38f0571}, !- Handle
  2.7.2;                                  !- Version Identifier

OS:SimulationControl,
  {c256c28b-27b1-4c18-8f18-09b1967bb861}, !- Handle
  ,                                       !- Do Zone Sizing Calculation
  ,                                       !- Do System Sizing Calculation
  ,                                       !- Do Plant Sizing Calculation
  No,                                     !- Run Simulation for Sizing Periods
  Yes,                                    !- Run Simulation for Weather File Run Periods
  ,                                       !- Loads Convergence Tolerance Value
  ,                                       !- Temperature Convergence Tolerance Value {deltaC}
  FullExterior,                           !- Solar Distribution
  50;                                     !- Maximum Number of Warmup Days

OS:YearDescription,
  {237e2e70-bf58-41d6-8821-bed94ba14466}, !- Handle
  2009,                                   !- Calendar Year
  ,                                       !- Day of Week for Start Day
  ;                                       !- Is Leap Year

OS:RunPeriod,
  {24c7f831-814c-4553-87c6-a057f8639a83}, !- Handle
  CTZ10S22A,                              !- Name
  1,                                      !- Begin Month
  1,                                      !- Begin Day of Month
  12,                                     !- End Month
  31,                                     !- End Day of Month
  No,                                     !- Use Weather File Holidays and Special Days
  No,                                     !- Use Weather File Daylight Saving Period
  Yes,                                    !- Apply Weekend Holiday Rule
  ,                                       !- Use Weather File Rain Indicators
  ,                                       !- Use Weather File Snow Indicators
  ;                                       !- Number of Times Runperiod to be Repeated

OS:Site,
  {cc06ab68-a299-4196-b142-5ca4b024ea21}, !- Handle
  CA_RIVERSIDE-MUNI_USA Design_Conditions, !- Name
  33.95,                                  !- Latitude {deg}
  -117.43,                                !- Longitude {deg}
  -8,                                     !- Time Zone {hr}
  249.0216,                               !- Elevation {m}
  ;                                       !- Terrain

OS:SizingPeriod:DesignDay,
  {a2b79f98-bd3a-4bd1-820c-483c49711d7d}, !- Handle
  CA_RIVERSIDE-MUNI Ann Htg 99.6% Condns DB, !- Name
  2.5,                                    !- Maximum Dry-Bulb Temperature {C}
  0,                                      !- Daily Dry-Bulb Temperature Range {deltaC}
  2.5,                                    !- Humidity Indicating Conditions at Maximum Dry-Bulb
  98369,                                  !- Barometric Pressure {Pa}
  1.1,                                    !- Wind Speed {m/s}
  120,                                    !- Wind Direction {deg}
  0,                                      !- Sky Clearness
  0,                                      !- Rain Indicator
  0,                                      !- Snow Indicator
  21,                                     !- Day of Month
  12,                                     !- Month
  WinterDesignDay,                        !- Day Type
  0,                                      !- Daylight Saving Time Indicator
  Wetbulb,                                !- Humidity Indicating Type
  ,                                       !- Humidity Indicating Day Schedule Name
  DefaultMultipliers,                     !- Dry-Bulb Temperature Range Modifier Type
  ,                                       !- Dry-Bulb Temperature Range Modifier Schedule Name
  ASHRAEClearSky;                         !- Solar Model Indicator

OS:SizingPeriod:DesignDay,
  {6f683568-0b8c-4d17-967e-c449c3869234}, !- Handle
  CA_RIVERSIDE-MUNI Ann Clg .4% Condns DB=>MWB, !- Name
  37.9,                                   !- Maximum Dry-Bulb Temperature {C}
  16.4,                                   !- Daily Dry-Bulb Temperature Range {deltaC}
  20.7,                                   !- Humidity Indicating Conditions at Maximum Dry-Bulb
  98369,                                  !- Barometric Pressure {Pa}
  4.5,                                    !- Wind Speed {m/s}
  270,                                    !- Wind Direction {deg}
  0,                                      !- Sky Clearness
  0,                                      !- Rain Indicator
  0,                                      !- Snow Indicator
  21,                                     !- Day of Month
  8,                                      !- Month
  SummerDesignDay,                        !- Day Type
  0,                                      !- Daylight Saving Time Indicator
  Wetbulb,                                !- Humidity Indicating Type
  ,                                       !- Humidity Indicating Day Schedule Name
  DefaultMultipliers,                     !- Dry-Bulb Temperature Range Modifier Type
  ,                                       !- Dry-Bulb Temperature Range Modifier Schedule Name
  ASHRAETau,                              !- Solar Model Indicator
  ,                                       !- Beam Solar Day Schedule Name
  ,                                       !- Diffuse Solar Day Schedule Name
  0.367,                                  !- ASHRAE Taub {dimensionless}
  2.46;                                   !- ASHRAE Taud {dimensionless}

OS:SizingPeriod:DesignDay,
  {6a48a8f3-38d5-4658-8cd6-13f42849d8cf}, !- Handle
  CA_RIVERSIDE-MUNI Ann Clg .4% Condns WB=>MDB, !- Name
  34.1,                                   !- Maximum Dry-Bulb Temperature {C}
  16.4,                                   !- Daily Dry-Bulb Temperature Range {deltaC}
  22.7,                                   !- Humidity Indicating Conditions at Maximum Dry-Bulb
  98369,                                  !- Barometric Pressure {Pa}
  4.5,                                    !- Wind Speed {m/s}
  270,                                    !- Wind Direction {deg}
  0,                                      !- Sky Clearness
  0,                                      !- Rain Indicator
  0,                                      !- Snow Indicator
  21,                                     !- Day of Month
  8,                                      !- Month
  SummerDesignDay,                        !- Day Type
  0,                                      !- Daylight Saving Time Indicator
  Wetbulb,                                !- Humidity Indicating Type
  ,                                       !- Humidity Indicating Day Schedule Name
  DefaultMultipliers,                     !- Dry-Bulb Temperature Range Modifier Type
  ,                                       !- Dry-Bulb Temperature Range Modifier Schedule Name
  ASHRAETau,                              !- Solar Model Indicator
  ,                                       !- Beam Solar Day Schedule Name
  ,                                       !- Diffuse Solar Day Schedule Name
  0.367,                                  !- ASHRAE Taub {dimensionless}
  2.46;                                   !- ASHRAE Taud {dimensionless}

OS:SizingPeriod:DesignDay,
  {82fa5557-e0f8-448c-a77a-452c06152d5d}, !- Handle
  CA_RIVERSIDE-MUNI Ann Clg .4% Condns DP=>MDB, !- Name
  27.5,                                   !- Maximum Dry-Bulb Temperature {C}
  16.4,                                   !- Daily Dry-Bulb Temperature Range {deltaC}
  18.9,                                   !- Humidity Indicating Conditions at Maximum Dry-Bulb
  98369,                                  !- Barometric Pressure {Pa}
  4.5,                                    !- Wind Speed {m/s}
  270,                                    !- Wind Direction {deg}
  0,                                      !- Sky Clearness
  0,                                      !- Rain Indicator
  0,                                      !- Snow Indicator
  21,                                     !- Day of Month
  8,                                      !- Month
  SummerDesignDay,                        !- Day Type
  0,                                      !- Daylight Saving Time Indicator
  Dewpoint,                               !- Humidity Indicating Type
  ,                                       !- Humidity Indicating Day Schedule Name
  DefaultMultipliers,                     !- Dry-Bulb Temperature Range Modifier Type
  ,                                       !- Dry-Bulb Temperature Range Modifier Schedule Name
  ASHRAETau,                              !- Solar Model Indicator
  ,                                       !- Beam Solar Day Schedule Name
  ,                                       !- Diffuse Solar Day Schedule Name
  0.367,                                  !- ASHRAE Taub {dimensionless}
  2.46;                                   !- ASHRAE Taud {dimensionless}

OS:SizingPeriod:DesignDay,
  {714eb0df-1300-4461-b55d-eb5eadf53af9}, !- Handle
  CA_RIVERSIDE-MUNI June .4% Condns DB=>MCWB, !- Name
  36.8,                                   !- Maximum Dry-Bulb Temperature {C}
  14.8,                                   !- Daily Dry-Bulb Temperature Range {deltaC}
  20.4,                                   !- Humidity Indicating Conditions at Maximum Dry-Bulb
  98369,                                  !- Barometric Pressure {Pa}
  2.4,                                    !- Wind Speed {m/s}
  270,                                    !- Wind Direction {deg}
  0,                                      !- Sky Clearness
  0,                                      !- Rain Indicator
  0,                                      !- Snow Indicator
  21,                                     !- Day of Month
  6,                                      !- Month
  SummerDesignDay,                        !- Day Type
  0,                                      !- Daylight Saving Time Indicator
  Wetbulb,                                !- Humidity Indicating Type
  ,                                       !- Humidity Indicating Day Schedule Name
  DefaultMultipliers,                     !- Dry-Bulb Temperature Range Modifier Type
  ,                                       !- Dry-Bulb Temperature Range Modifier Schedule Name
  ASHRAETau,                              !- Solar Model Indicator
  ,                                       !- Beam Solar Day Schedule Name
  ,                                       !- Diffuse Solar Day Schedule Name
  0.362,                                  !- ASHRAE Taub {dimensionless}
  2.423;                                  !- ASHRAE Taud {dimensionless}

OS:SizingPeriod:DesignDay,
  {f6647848-9f60-44fb-b2a4-3973bbd9d5cb}, !- Handle
  CA_RIVERSIDE-MUNI July .4% Condns DB=>MCWB, !- Name
  38.7,                                   !- Maximum Dry-Bulb Temperature {C}
  15.7,                                   !- Daily Dry-Bulb Temperature Range {deltaC}
  21.9,                                   !- Humidity Indicating Conditions at Maximum Dry-Bulb
  98369,                                  !- Barometric Pressure {Pa}
  2.4,                                    !- Wind Speed {m/s}
  270,                                    !- Wind Direction {deg}
  0,                                      !- Sky Clearness
  0,                                      !- Rain Indicator
  0,                                      !- Snow Indicator
  21,                                     !- Day of Month
  7,                                      !- Month
  SummerDesignDay,                        !- Day Type
  0,                                      !- Daylight Saving Time Indicator
  Wetbulb,                                !- Humidity Indicating Type
  ,                                       !- Humidity Indicating Day Schedule Name
  DefaultMultipliers,                     !- Dry-Bulb Temperature Range Modifier Type
  ,                                       !- Dry-Bulb Temperature Range Modifier Schedule Name
  ASHRAETau,                              !- Solar Model Indicator
  ,                                       !- Beam Solar Day Schedule Name
  ,                                       !- Diffuse Solar Day Schedule Name
  0.383,                                  !- ASHRAE Taub {dimensionless}
  2.428;                                  !- ASHRAE Taud {dimensionless}

OS:SizingPeriod:DesignDay,
  {7fac9e67-fed9-4564-b395-00c7165e7e46}, !- Handle
  CA_RIVERSIDE-MUNI August .4% Condns DB=>MCWB, !- Name
  39.9,                                   !- Maximum Dry-Bulb Temperature {C}
  16.4,                                   !- Daily Dry-Bulb Temperature Range {deltaC}
  20.9,                                   !- Humidity Indicating Conditions at Maximum Dry-Bulb
  98369,                                  !- Barometric Pressure {Pa}
  2.2,                                    !- Wind Speed {m/s}
  270,                                    !- Wind Direction {deg}
  0,                                      !- Sky Clearness
  0,                                      !- Rain Indicator
  0,                                      !- Snow Indicator
  21,                                     !- Day of Month
  8,                                      !- Month
  SummerDesignDay,                        !- Day Type
  0,                                      !- Daylight Saving Time Indicator
  Wetbulb,                                !- Humidity Indicating Type
  ,                                       !- Humidity Indicating Day Schedule Name
  DefaultMultipliers,                     !- Dry-Bulb Temperature Range Modifier Type
  ,                                       !- Dry-Bulb Temperature Range Modifier Schedule Name
  ASHRAETau,                              !- Solar Model Indicator
  ,                                       !- Beam Solar Day Schedule Name
  ,                                       !- Diffuse Solar Day Schedule Name
  0.367,                                  !- ASHRAE Taub {dimensionless}
  2.46;                                   !- ASHRAE Taud {dimensionless}

OS:SizingPeriod:DesignDay,
  {3e5fdf27-2a25-4eba-995d-65144cb1fc74}, !- Handle
  CA_RIVERSIDE-MUNI September .4% Condns DB=>MCWB, !- Name
  40.4,                                   !- Maximum Dry-Bulb Temperature {C}
  16.1,                                   !- Daily Dry-Bulb Temperature Range {deltaC}
  20.4,                                   !- Humidity Indicating Conditions at Maximum Dry-Bulb
  98369,                                  !- Barometric Pressure {Pa}
  1.9,                                    !- Wind Speed {m/s}
  270,                                    !- Wind Direction {deg}
  0,                                      !- Sky Clearness
  0,                                      !- Rain Indicator
  0,                                      !- Snow Indicator
  21,                                     !- Day of Month
  9,                                      !- Month
  SummerDesignDay,                        !- Day Type
  0,                                      !- Daylight Saving Time Indicator
  Wetbulb,                                !- Humidity Indicating Type
  ,                                       !- Humidity Indicating Day Schedule Name
  DefaultMultipliers,                     !- Dry-Bulb Temperature Range Modifier Type
  ,                                       !- Dry-Bulb Temperature Range Modifier Schedule Name
  ASHRAETau,                              !- Solar Model Indicator
  ,                                       !- Beam Solar Day Schedule Name
  ,                                       !- Diffuse Solar Day Schedule Name
  0.35,                                   !- ASHRAE Taub {dimensionless}
  2.494;                                  !- ASHRAE Taud {dimensionless}

OS:SizingPeriod:DesignDay,
  {14ff3bc6-2ff9-44aa-9bc4-19c0641e43d6}, !- Handle
  CA_RIVERSIDE-MUNI October .4% Condns DB=>MCWB, !- Name
  37.2,                                   !- Maximum Dry-Bulb Temperature {C}
  14.5,                                   !- Daily Dry-Bulb Temperature Range {deltaC}
  17.9,                                   !- Humidity Indicating Conditions at Maximum Dry-Bulb
  98369,                                  !- Barometric Pressure {Pa}
  1.9,                                    !- Wind Speed {m/s}
  270,                                    !- Wind Direction {deg}
  0,                                      !- Sky Clearness
  0,                                      !- Rain Indicator
  0,                                      !- Snow Indicator
  21,                                     !- Day of Month
  10,                                     !- Month
  SummerDesignDay,                        !- Day Type
  0,                                      !- Daylight Saving Time Indicator
  Wetbulb,                                !- Humidity Indicating Type
  ,                                       !- Humidity Indicating Day Schedule Name
  DefaultMultipliers,                     !- Dry-Bulb Temperature Range Modifier Type
  ,                                       !- Dry-Bulb Temperature Range Modifier Schedule Name
  ASHRAETau,                              !- Solar Model Indicator
  ,                                       !- Beam Solar Day Schedule Name
  ,                                       !- Diffuse Solar Day Schedule Name
  0.34,                                   !- ASHRAE Taub {dimensionless}
  2.493;                                  !- ASHRAE Taud {dimensionless}

OS:SizingPeriod:DesignDay,
  {de90600d-17ad-44be-889e-a7c01af792a2}, !- Handle
  CA_RIVERSIDE-MUNI November .4% Condns DB=>MCWB, !- Name
  32.5,                                   !- Maximum Dry-Bulb Temperature {C}
  14,                                     !- Daily Dry-Bulb Temperature Range {deltaC}
  14.4,                                   !- Humidity Indicating Conditions at Maximum Dry-Bulb
  98369,                                  !- Barometric Pressure {Pa}
  1.9,                                    !- Wind Speed {m/s}
  270,                                    !- Wind Direction {deg}
  0,                                      !- Sky Clearness
  0,                                      !- Rain Indicator
  0,                                      !- Snow Indicator
  21,                                     !- Day of Month
  11,                                     !- Month
  SummerDesignDay,                        !- Day Type
  0,                                      !- Daylight Saving Time Indicator
  Wetbulb,                                !- Humidity Indicating Type
  ,                                       !- Humidity Indicating Day Schedule Name
  DefaultMultipliers,                     !- Dry-Bulb Temperature Range Modifier Type
  ,                                       !- Dry-Bulb Temperature Range Modifier Schedule Name
  ASHRAETau,                              !- Solar Model Indicator
  ,                                       !- Beam Solar Day Schedule Name
  ,                                       !- Diffuse Solar Day Schedule Name
  0.305,                                  !- ASHRAE Taub {dimensionless}
  2.582;                                  !- ASHRAE Taud {dimensionless}

OS:WeatherFile,
  {e9a0435c-e1eb-41ef-ab09-d9c2d8fc1d47}, !- Handle
  CA_RIVERSIDE-MUNI,                      !- City
  -,                                      !- State Province Region
  USA,                                    !- Country
  Custom-722869,                          !- Data Source
  722869,                                 !- WMO Number
  33.95,                                  !- Latitude {deg}
  -117.43,                                !- Longitude {deg}
  -8,                                     !- Time Zone {hr}
  249,                                    !- Elevation {m}
  file:///C:/Users/agoyal/OneDrive - TRC/Documents/CBECC-Com 2022 Data/EPW/CTZ10S22A.epw, !- Url
  309B2480;                               !- Checksum

OS:Sizing:Parameters,
  {1439488e-eb20-42b3-b3bd-0589936d2f50}, !- Handle
  1,                                      !- Heating Sizing Factor
  1;                                      !- Cooling Sizing Factor

OS:Material,
  {2a51d944-8626-473d-a617-264e4548d86f}, !- Handle
  Gypsum Board - 1/2 in.,                 !- Name
  MediumRough,                            !- Roughness
  0.0127,                                 !- Thickness {m}
  0.158656446866265,                      !- Conductivity {W/m-K}
  640.738534958406,                       !- Density {kg/m3}
  1130.436,                               !- Specific Heat {J/kg-K}
  0.9,                                    !- Thermal Absorptance
  0.7,                                    !- Solar Absorptance
  0.8;                                    !- Visible Absorptance

OS:Material,
  {fd1397a6-90b5-4d74-9a01-0cbbff967754}, !- Handle
  Gypsum Board - 5/8 in.,                 !- Name
  Smooth,                                 !- Roughness
  0.016002,                               !- Thickness {m}
  0.158656446866265,                      !- Conductivity {W/m-K}
  640.738534958406,                       !- Density {kg/m3}
  1130.436,                               !- Specific Heat {J/kg-K}
  0.9,                                    !- Thermal Absorptance
  0.7,                                    !- Solar Absorptance
  0.8;                                    !- Visible Absorptance

OS:Material,
  {30d68500-ac2a-45aa-a5b8-1d69b09c24e5}, !- Handle
  Stucco - 7/8 in.,                       !- Name
  MediumRough,                            !- Roughness
  0.022352,                               !- Thickness {m}
  0.700947539880412,                      !- Conductivity {W/m-K}
  1855.09824333832,                       !- Density {kg/m3}
  837.36,                                 !- Specific Heat {J/kg-K}
  0.9,                                    !- Thermal Absorptance
  0.7,                                    !- Solar Absorptance
  0.8;                                    !- Visible Absorptance

OS:Material,
  {65e5e0b5-ac32-4b70-b133-42df9c3e8a3f}, !- Handle
  Carpet - 3/4 in.,                       !- Name
  Smooth,                                 !- Roughness
  0.01905,                                !- Thickness {m}
  0.0455183217255675,                     !- Conductivity {W/m-K}
  288.332340731283,                       !- Density {kg/m3}
  1381.644,                               !- Specific Heat {J/kg-K}
  0.9,                                    !- Thermal Absorptance
  0.7,                                    !- Solar Absorptance
  0.8;                                    !- Visible Absorptance

OS:Material,
  {518c7369-4110-45c9-a2a9-a897524dfc6b}, !- Handle
  Plywood - 5/8 in.,                      !- Name
  Smooth,                                 !- Roughness
  0.016002,                               !- Thickness {m}
  0.115440002246971,                      !- Conductivity {W/m-K}
  480.553901218804,                       !- Density {kg/m3}
  1884.06;                                !- Specific Heat {J/kg-K}

OS:Material,
  {8e18b0f5-ec5c-4cc7-8843-b6396f01ed90}, !- Handle
  Compliance Insulation R1.54,            !- Name
  Smooth,                                 !- Roughness
  0.0062429136,                           !- Thickness {m}
  0.0230187710627394,                     !- Conductivity {W/m-K}
  16.0184633739601,                       !- Density {kg/m3}
  1130.436;                               !- Specific Heat {J/kg-K}

OS:Material,
  {94a0d0a2-246c-4b67-93e0-78b31f751ce8}, !- Handle
  Compliance Insulation R1.00,            !- Name
  Smooth,                                 !- Roughness
  0.00405384,                             !- Thickness {m}
  0.0230187710627394,                     !- Conductivity {W/m-K}
  16.0184633739601,                       !- Density {kg/m3}
  1130.436;                               !- Specific Heat {J/kg-K}

OS:Material,
  {43cd7b5c-a474-4624-8e65-4a4d37864d95}, !- Handle
  Compliance Insulation R1.35,            !- Name
  Smooth,                                 !- Roughness
  0.005472684,                            !- Thickness {m}
  0.0230187710627394,                     !- Conductivity {W/m-K}
  16.0184633739601,                       !- Density {kg/m3}
  1130.436;                               !- Specific Heat {J/kg-K}

OS:Material,
  {fa91ef8c-35f7-43d2-aee7-7093af249dbc}, !- Handle
  Compliance Insulation R3.00,            !- Name
  MediumRough,                            !- Roughness
  0.01216152,                             !- Thickness {m}
  0.0230187710627394,                     !- Conductivity {W/m-K}
  16.0184633739601,                       !- Density {kg/m3}
  1130.436,                               !- Specific Heat {J/kg-K}
  0.9,                                    !- Thermal Absorptance
  0.7,                                    !- Solar Absorptance
  0.8;                                    !- Visible Absorptance

OS:Material,
  {6feba05b-71a4-4520-9ed6-03ad816cdb8a}, !- Handle
  Compliance Insulation R6.00,            !- Name
  Smooth,                                 !- Roughness
  0.02432304,                             !- Thickness {m}
  0.0230187710627394,                     !- Conductivity {W/m-K}
  16.0184633739601,                       !- Density {kg/m3}
  1130.436;                               !- Specific Heat {J/kg-K}

OS:Material:NoMass,
  {cdd7f00f-b16f-499e-b872-6a8dea1ed9e8}, !- Handle
  WoodFrameWall16inOC R11.25,             !- Name
  Smooth,                                 !- Roughness
  1.26865197459958;                       !- Thermal Resistance {m2-K/W}

OS:Material,
  {34325e9d-96b9-463b-bfb6-5d1c4789fc7e}, !- Handle
  Concrete - 140 lb/ft3 - 10 in.,         !- Name
  Smooth,                                 !- Roughness
  0.254,                                  !- Thickness {m}
  1.95140333633374,                       !- Conductivity {W/m-K}
  2239.06081041215,                       !- Density {kg/m3}
  921.096,                                !- Specific Heat {J/kg-K}
  0.9,                                    !- Thermal Absorptance
  0.7,                                    !- Solar Absorptance
  0.8;                                    !- Visible Absorptance

OS:Material:NoMass,
  {d5189d9d-4b2c-4afa-bda9-e423e21cd6de}, !- Handle
  WoodRoof16OCCavInsR38,                  !- Name
  Smooth,                                 !- Roughness
  4.68171312301043,                       !- Thermal Resistance {m2-K/W}
  0.9,                                    !- Thermal Absorptance
  0.7,                                    !- Solar Absorptance
  0.8;                                    !- Visible Absorptance

OS:Material,
  {7a336b56-7879-49ac-992c-49a8610ade79}, !- Handle
  Building Paper - 1/16 in.,              !- Name
  Smooth,                                 !- Roughness
  0.001524,                               !- Thickness {m}
  0.28851346888411,                       !- Conductivity {W/m-K}
  96.1107802437608,                       !- Density {kg/m3}
  1256.04;                                !- Specific Heat {J/kg-K}

OS:Material,
  {b5305e4c-948f-4c39-8653-457a1ba82332}, !- Handle
  Fiberboard sheathing - 1/2 in.,         !- Name
  Smooth,                                 !- Roughness
  0.0127,                                 !- Thickness {m}
  0.0706139743879526,                     !- Conductivity {W/m-K}
  399.820845814045,                       !- Density {kg/m3}
  1297.908;                               !- Specific Heat {J/kg-K}

OS:Material,
  {97dfc1fa-84cf-4de5-bdb8-c1460041b97d}, !- Handle
  Roofing felt - 1/8 in.,                 !- Name
  MediumRough,                            !- Roughness
  0.001524,                               !- Thickness {m}
  1.19714916872909,                       !- Conductivity {W/m-K}
  230.665872585026,                       !- Density {kg/m3}
  1256.04,                                !- Specific Heat {J/kg-K}
  0.75,                                   !- Thermal Absorptance
  0.37,                                   !- Solar Absorptance
  0.85;                                   !- Visible Absorptance

OS:Material:NoMass,
  {189994d5-90bb-4b66-8647-8b921c9d46e5}, !- Handle
  WoodFloor16inOCCavInsR0,                !- Name
  Smooth,                                 !- Roughness
  0.162021368987722;                      !- Thermal Resistance {m2-K/W}

OS:Material,
  {e69790c5-73d7-4256-a97d-a1d139c95824}, !- Handle
  Stone - 1 in.,                          !- Name
  MediumRough,                            !- Roughness
  0.0254,                                 !- Thickness {m}
  1.80342552235899,                       !- Conductivity {W/m-K}
  2239.06081041215,                       !- Density {kg/m3}
  921.096,                                !- Specific Heat {J/kg-K}
  0.85,                                   !- Thermal Absorptance
  0.92,                                   !- Solar Absorptance
  0.85;                                   !- Visible Absorptance

OS:Material:NoMass,
  {3c6e6e93-d672-432c-95e5-49d81c8d0ae9}, !- Handle
  WoodFraming16inOC,                      !- Name
  Smooth,                                 !- Roughness
  0.14969365612996;                       !- Thermal Resistance {m2-K/W}

OS:Material,
  {bae2c313-bfac-4f1b-83a3-df08eb9959e5}, !- Handle
  Concrete - 140 lb/ft3 - 8 in.,          !- Name
  Smooth,                                 !- Roughness
  0.2032,                                 !- Thickness {m}
  1.95140333633374,                       !- Conductivity {W/m-K}
  2239.06081041215,                       !- Density {kg/m3}
  921.096;                                !- Specific Heat {J/kg-K}

OS:Material,
  {cfd3aa89-8e49-4b4f-aaad-600c68fd59a0}, !- Handle
  Concrete - 140 lb/ft3 - 4 in.,          !- Name
  Smooth,                                 !- Roughness
  0.1016,                                 !- Thickness {m}