
OS:Version,
  {e512f9dc-c373-408d-91ec-ca49a2f465c8}, !- Handle
  2.7.2;                                  !- Version Identifier

OS:SimulationControl,
  {042d65b4-ca94-47ff-aa16-8762c5712db8}, !- Handle
  ,                                       !- Do Zone Sizing Calculation
  ,                                       !- Do System Sizing Calculation
  ,                                       !- Do Plant Sizing Calculation
  No,                                     !- Run Simulation for Sizing Periods
  Yes,                                    !- Run Simulation for Weather File Run Periods
  ,                                       !- Loads Convergence Tolerance Value
  ,                                       !- Temperature Convergence Tolerance Value {deltaC}
  FullExterior,                           !- Solar Distribution
  50;                                     !- Maximum Number of Warmup Days

OS:YearDescription,
  {5f14c84d-5787-440b-a188-157062e38e97}, !- Handle
  2009,                                   !- Calendar Year
  ,                                       !- Day of Week for Start Day
  ;                                       !- Is Leap Year

OS:RunPeriod,
  {9a98f91e-0f53-43bc-a62d-ea16cf887afe}, !- Handle
  CTZ05S22A,                              !- Name
  1,                                      !- Begin Month
  1,                                      !- Begin Day of Month
  12,                                     !- End Month
  31,                                     !- End Day of Month
  No,                                     !- Use Weather File Holidays and Special Days
  No,                                     !- Use Weather File Daylight Saving Period
  Yes,                                    !- Apply Weekend Holiday Rule
  ,                                       !- Use Weather File Rain Indicators
  ,                                       !- Use Weather File Snow Indicators
  ;                                       !- Number of Times Runperiod to be Repeated

OS:Site,
  {7436103b-2edf-4be6-9a61-f066aeabeaa9}, !- Handle
  CA_SANTA-MARIA-PUBLIC-AP_USA Design_Conditions, !- Name
  34.9,                                   !- Latitude {deg}
  -120.45,                                !- Longitude {deg}
  -8,                                     !- Time Zone {hr}
  71.9328,                                !- Elevation {m}
  ;                                       !- Terrain

OS:SizingPeriod:DesignDay,
  {e069abd5-047b-4a98-907c-238ac3cc7acd}, !- Handle
  CA_SANTA-MARIA-PUBLIC-AP Ann Htg 99.6% Condns DB, !- Name
  0.7,                                    !- Maximum Dry-Bulb Temperature {C}
  0,                                      !- Daily Dry-Bulb Temperature Range {deltaC}
  0.7,                                    !- Humidity Indicating Conditions at Maximum Dry-Bulb
  100463,                                 !- Barometric Pressure {Pa}
  1.4,                                    !- Wind Speed {m/s}
  120,                                    !- Wind Direction {deg}
  0,                                      !- Sky Clearness
  0,                                      !- Rain Indicator
  0,                                      !- Snow Indicator
  21,                                     !- Day of Month
  12,                                     !- Month
  WinterDesignDay,                        !- Day Type
  0,                                      !- Daylight Saving Time Indicator
  Wetbulb,                                !- Humidity Indicating Type
  ,                                       !- Humidity Indicating Day Schedule Name
  DefaultMultipliers,                     !- Dry-Bulb Temperature Range Modifier Type
  ,                                       !- Dry-Bulb Temperature Range Modifier Schedule Name
  ASHRAEClearSky;                         !- Solar Model Indicator

OS:SizingPeriod:DesignDay,
  {9f503bc4-9da7-454f-a812-81ae50e25515}, !- Handle
  CA_SANTA-MARIA-PUBLIC-AP Ann Clg .4% Condns DB=>MWB, !- Name
  29,                                     !- Maximum Dry-Bulb Temperature {C}
  9.9,                                    !- Daily Dry-Bulb Temperature Range {deltaC}
  16.6,                                   !- Humidity Indicating Conditions at Maximum Dry-Bulb
  100463,                                 !- Barometric Pressure {Pa}
  4.4,                                    !- Wind Speed {m/s}
  300,                                    !- Wind Direction {deg}
  0,                                      !- Sky Clearness
  0,                                      !- Rain Indicator
  0,                                      !- Snow Indicator
  21,                                     !- Day of Month
  8,                                      !- Month
  SummerDesignDay,                        !- Day Type
  0,                                      !- Daylight Saving Time Indicator
  Wetbulb,                                !- Humidity Indicating Type
  ,                                       !- Humidity Indicating Day Schedule Name
  DefaultMultipliers,                     !- Dry-Bulb Temperature Range Modifier Type
  ,                                       !- Dry-Bulb Temperature Range Modifier Schedule Name
  ASHRAETau,                              !- Solar Model Indicator
  ,                                       !- Beam Solar Day Schedule Name
  ,                                       !- Diffuse Solar Day Schedule Name
  0.347,                                  !- ASHRAE Taub {dimensionless}
  2.497;                                  !- ASHRAE Taud {dimensionless}

OS:SizingPeriod:DesignDay,
  {f4ddac74-07b2-4807-894f-1123f415066a}, !- Handle
  CA_SANTA-MARIA-PUBLIC-AP Ann Clg .4% Condns WB=>MDB, !- Name
  25.5,                                   !- Maximum Dry-Bulb Temperature {C}
  9.9,                                    !- Daily Dry-Bulb Temperature Range {deltaC}
  18.9,                                   !- Humidity Indicating Conditions at Maximum Dry-Bulb
  100463,                                 !- Barometric Pressure {Pa}
  4.4,                                    !- Wind Speed {m/s}
  300,                                    !- Wind Direction {deg}
  0,                                      !- Sky Clearness
  0,                                      !- Rain Indicator
  0,                                      !- Snow Indicator
  21,                                     !- Day of Month
  8,                                      !- Month
  SummerDesignDay,                        !- Day Type
  0,                                      !- Daylight Saving Time Indicator
  Wetbulb,                                !- Humidity Indicating Type
  ,                                       !- Humidity Indicating Day Schedule Name
  DefaultMultipliers,                     !- Dry-Bulb Temperature Range Modifier Type
  ,                                       !- Dry-Bulb Temperature Range Modifier Schedule Name
  ASHRAETau,                              !- Solar Model Indicator
  ,                                       !- Beam Solar Day Schedule Name
  ,                                       !- Diffuse Solar Day Schedule Name
  0.347,                                  !- ASHRAE Taub {dimensionless}
  2.497;                                  !- ASHRAE Taud {dimensionless}

OS:SizingPeriod:DesignDay,
  {2d974d6a-daa7-415f-913b-18b3ecab6d3e}, !- Handle
  CA_SANTA-MARIA-PUBLIC-AP Ann Clg .4% Condns DP=>MDB, !- Name
  20.6,                                   !- Maximum Dry-Bulb Temperature {C}
  9.9,                                    !- Daily Dry-Bulb Temperature Range {deltaC}
  16.3,                                   !- Humidity Indicating Conditions at Maximum Dry-Bulb
  100463,                                 !- Barometric Pressure {Pa}
  4.4,                                    !- Wind Speed {m/s}
  300,                                    !- Wind Direction {deg}
  0,                                      !- Sky Clearness
  0,                                      !- Rain Indicator
  0,                                      !- Snow Indicator
  21,                                     !- Day of Month
  8,                                      !- Month
  SummerDesignDay,                        !- Day Type
  0,                                      !- Daylight Saving Time Indicator
  Dewpoint,                               !- Humidity Indicating Type
  ,                                       !- Humidity Indicating Day Schedule Name
  DefaultMultipliers,                     !- Dry-Bulb Temperature Range Modifier Type
  ,                                       !- Dry-Bulb Temperature Range Modifier Schedule Name
  ASHRAETau,                              !- Solar Model Indicator
  ,                                       !- Beam Solar Day Schedule Name
  ,                                       !- Diffuse Solar Day Schedule Name
  0.347,                                  !- ASHRAE Taub {dimensionless}
  2.497;                                  !- ASHRAE Taud {dimensionless}

OS:SizingPeriod:DesignDay,
  {6b039727-b145-4705-a37c-404aeb355283}, !- Handle
  CA_SANTA-MARIA-PUBLIC-AP June .4% Condns DB=>MCWB, !- Name
  29.5,                                   !- Maximum Dry-Bulb Temperature {C}
  10.4,                                   !- Daily Dry-Bulb Temperature Range {deltaC}
  17.5,                                   !- Humidity Indicating Conditions at Maximum Dry-Bulb
  100463,                                 !- Barometric Pressure {Pa}
  3.5,                                    !- Wind Speed {m/s}
  300,                                    !- Wind Direction {deg}
  0,                                      !- Sky Clearness
  0,                                      !- Rain Indicator
  0,                                      !- Snow Indicator
  21,                                     !- Day of Month
  6,                                      !- Month
  SummerDesignDay,                        !- Day Type
  0,                                      !- Daylight Saving Time Indicator
  Wetbulb,                                !- Humidity Indicating Type
  ,                                       !- Humidity Indicating Day Schedule Name
  DefaultMultipliers,                     !- Dry-Bulb Temperature Range Modifier Type
  ,                                       !- Dry-Bulb Temperature Range Modifier Schedule Name
  ASHRAETau,                              !- Solar Model Indicator
  ,                                       !- Beam Solar Day Schedule Name
  ,                                       !- Diffuse Solar Day Schedule Name
  0.352,                                  !- ASHRAE Taub {dimensionless}
  2.461;                                  !- ASHRAE Taud {dimensionless}

OS:SizingPeriod:DesignDay,
  {d9913ae3-bd6a-4f73-8017-a89fe2d03f5b}, !- Handle
  CA_SANTA-MARIA-PUBLIC-AP July .4% Condns DB=>MCWB, !- Name
  27.8,                                   !- Maximum Dry-Bulb Temperature {C}
  9.7,                                    !- Daily Dry-Bulb Temperature Range {deltaC}
  19.2,                                   !- Humidity Indicating Conditions at Maximum Dry-Bulb
  100463,                                 !- Barometric Pressure {Pa}
  3,                                      !- Wind Speed {m/s}
  300,                                    !- Wind Direction {deg}
  0,                                      !- Sky Clearness
  0,                                      !- Rain Indicator
  0,                                      !- Snow Indicator
  21,                                     !- Day of Month
  7,                                      !- Month
  SummerDesignDay,                        !- Day Type
  0,                                      !- Daylight Saving Time Indicator
  Wetbulb,                                !- Humidity Indicating Type
  ,                                       !- Humidity Indicating Day Schedule Name
  DefaultMultipliers,                     !- Dry-Bulb Temperature Range Modifier Type
  ,                                       !- Dry-Bulb Temperature Range Modifier Schedule Name
  ASHRAETau,                              !- Solar Model Indicator
  ,                                       !- Beam Solar Day Schedule Name
  ,                                       !- Diffuse Solar Day Schedule Name
  0.361,                                  !- ASHRAE Taub {dimensionless}
  2.49;                                   !- ASHRAE Taud {dimensionless}

OS:SizingPeriod:DesignDay,
  {899459f8-b194-4778-9ee1-edb9f0496214}, !- Handle
  CA_SANTA-MARIA-PUBLIC-AP August .4% Condns DB=>MCWB, !- Name
  28.3,                                   !- Maximum Dry-Bulb Temperature {C}
  9.9,                                    !- Daily Dry-Bulb Temperature Range {deltaC}
  18.7,                                   !- Humidity Indicating Conditions at Maximum Dry-Bulb
  100463,                                 !- Barometric Pressure {Pa}
  2.8,                                    !- Wind Speed {m/s}
  300,                                    !- Wind Direction {deg}
  0,                                      !- Sky Clearness
  0,                                      !- Rain Indicator
  0,                                      !- Snow Indicator
  21,                                     !- Day of Month
  8,                                      !- Month
  SummerDesignDay,                        !- Day Type
  0,                                      !- Daylight Saving Time Indicator
  Wetbulb,                                !- Humidity Indicating Type
  ,                                       !- Humidity Indicating Day Schedule Name
  DefaultMultipliers,                     !- Dry-Bulb Temperature Range Modifier Type
  ,                                       !- Dry-Bulb Temperature Range Modifier Schedule Name
  ASHRAETau,                              !- Solar Model Indicator
  ,                                       !- Beam Solar Day Schedule Name
  ,                                       !- Diffuse Solar Day Schedule Name
  0.347,                                  !- ASHRAE Taub {dimensionless}
  2.497;                                  !- ASHRAE Taud {dimensionless}

OS:SizingPeriod:DesignDay,
  {c156fd71-32c4-4e22-bcad-c8d8e9c0c5bf}, !- Handle
  CA_SANTA-MARIA-PUBLIC-AP September .4% Condns DB=>MCWB, !- Name
  30.6,                                   !- Maximum Dry-Bulb Temperature {C}
  11.1,                                   !- Daily Dry-Bulb Temperature Range {deltaC}
  17.4,                                   !- Humidity Indicating Conditions at Maximum Dry-Bulb
  100463,                                 !- Barometric Pressure {Pa}
  2.6,                                    !- Wind Speed {m/s}
  300,                                    !- Wind Direction {deg}
  0,                                      !- Sky Clearness
  0,                                      !- Rain Indicator
  0,                                      !- Snow Indicator
  21,                                     !- Day of Month
  9,                                      !- Month
  SummerDesignDay,                        !- Day Type
  0,                                      !- Daylight Saving Time Indicator
  Wetbulb,                                !- Humidity Indicating Type
  ,                                       !- Humidity Indicating Day Schedule Name
  DefaultMultipliers,                     !- Dry-Bulb Temperature Range Modifier Type
  ,                                       !- Dry-Bulb Temperature Range Modifier Schedule Name
  ASHRAETau,                              !- Solar Model Indicator
  ,                                       !- Beam Solar Day Schedule Name
  ,                                       !- Diffuse Solar Day Schedule Name
  0.347,                                  !- ASHRAE Taub {dimensionless}
  2.503;                                  !- ASHRAE Taud {dimensionless}

OS:SizingPeriod:DesignDay,
  {acf6c5f4-a9d5-421d-ac47-b4298d7cd24b}, !- Handle
  CA_SANTA-MARIA-PUBLIC-AP October .4% Condns DB=>MCWB, !- Name
  32.7,                                   !- Maximum Dry-Bulb Temperature {C}
  12.8,                                   !- Daily Dry-Bulb Temperature Range {deltaC}
  17,                                     !- Humidity Indicating Conditions at Maximum Dry-Bulb
  100463,                                 !- Barometric Pressure {Pa}
  2.7,                                    !- Wind Speed {m/s}
  300,                                    !- Wind Direction {deg}
  0,                                      !- Sky Clearness
  0,                                      !- Rain Indicator
  0,                                      !- Snow Indicator
  21,                                     !- Day of Month
  10,                                     !- Month
  SummerDesignDay,                        !- Day Type
  0,                                      !- Daylight Saving Time Indicator
  Wetbulb,                                !- Humidity Indicating Type
  ,                                       !- Humidity Indicating Day Schedule Name
  DefaultMultipliers,                     !- Dry-Bulb Temperature Range Modifier Type
  ,                                       !- Dry-Bulb Temperature Range Modifier Schedule Name
  ASHRAETau,                              !- Solar Model Indicator
  ,                                       !- Beam Solar Day Schedule Name
  ,                                       !- Diffuse Solar Day Schedule Name
  0.342,                                  !- ASHRAE Taub {dimensionless}
  2.517;                                  !- ASHRAE Taud {dimensionless}

OS:SizingPeriod:DesignDay,
  {17761b8e-8484-4ba9-8422-618c57bcc331}, !- Handle
  CA_SANTA-MARIA-PUBLIC-AP November .4% Condns DB=>MCWB, !- Name
  29.1,                                   !- Maximum Dry-Bulb Temperature {C}
  13.6,                                   !- Daily Dry-Bulb Temperature Range {deltaC}
  15.3,                                   !- Humidity Indicating Conditions at Maximum Dry-Bulb
  100463,                                 !- Barometric Pressure {Pa}
  2.6,                                    !- Wind Speed {m/s}
  300,                                    !- Wind Direction {deg}
  0,                                      !- Sky Clearness
  0,                                      !- Rain Indicator
  0,                                      !- Snow Indicator
  21,                                     !- Day of Month
  11,                                     !- Month
  SummerDesignDay,                        !- Day Type
  0,                                      !- Daylight Saving Time Indicator
  Wetbulb,                                !- Humidity Indicating Type
  ,                                       !- Humidity Indicating Day Schedule Name
  DefaultMultipliers,                     !- Dry-Bulb Temperature Range Modifier Type
  ,                                       !- Dry-Bulb Temperature Range Modifier Schedule Name
  ASHRAETau,                              !- Solar Model Indicator
  ,                                       !- Beam Solar Day Schedule Name
  ,                                       !- Diffuse Solar Day Schedule Name
  0.304,                                  !- ASHRAE Taub {dimensionless}
  2.599;                                  !- ASHRAE Taud {dimensionless}

OS:WeatherFile,
  {d22ed13e-5403-49ec-b1e9-24134fc17cc1}, !- Handle
  CA_SANTA-MARIA-PUBLIC-AP,               !- City
  -,                                      !- State Province Region
  USA,                                    !- Country
  Custom-723940,                          !- Data Source
  723940,                                 !- WMO Number
  34.9,                                   !- Latitude {deg}
  -120.45,                                !- Longitude {deg}
  -8,                                     !- Time Zone {hr}
  72,                                     !- Elevation {m}
  file:///C:/Users/agoyal/OneDrive - TRC/Documents/CBECC-Com 2022 Data/EPW/CTZ05S22A.epw, !- Url
  59A14402;                               !- Checksum

OS:Sizing:Parameters,
  {440349d8-b6d8-4ee5-9bad-5b9cfa229e48}, !- Handle
  1,                                      !- Heating Sizing Factor
  1;                                      !- Cooling Sizing Factor

OS:Material,
  {294c675d-7cde-46f9-8649-01b3e590fc55}, !- Handle
  Gypsum Board - 1/2 in.,                 !- Name
  MediumRough,                            !- Roughness
  0.0127,                                 !- Thickness {m}
  0.158656446866265,                      !- Conductivity {W/m-K}
  640.738534958406,                       !- Density {kg/m3}
  1130.436,                               !- Specific Heat {J/kg-K}
  0.9,                                    !- Thermal Absorptance
  0.7,                                    !- Solar Absorptance
  0.8;                                    !- Visible Absorptance

OS:Material,
  {a8a94cb6-d2ea-4336-9502-593bb92cc647}, !- Handle
  Gypsum Board - 5/8 in.,                 !- Name
  Smooth,                                 !- Roughness
  0.016002,                               !- Thickness {m}
  0.158656446866265,                      !- Conductivity {W/m-K}
  640.738534958406,                       !- Density {kg/m3}
  1130.436,                               !- Specific Heat {J/kg-K}
  0.9,                                    !- Thermal Absorptance
  0.7,                                    !- Solar Absorptance
  0.8;                                    !- Visible Absorptance

OS:Material,
  {93b42fb9-25ae-44e4-8de8-ff1e3d926c5a}, !- Handle
  Stucco - 7/8 in.,                       !- Name
  MediumRough,                            !- Roughness
  0.022352,                               !- Thickness {m}
  0.700947539880412,                      !- Conductivity {W/m-K}
  1855.09824333832,                       !- Density {kg/m3}
  837.36,                                 !- Specific Heat {J/kg-K}
  0.9,                                    !- Thermal Absorptance
  0.7,                                    !- Solar Absorptance
  0.8;                                    !- Visible Absorptance

OS:Material,
  {526d7fdf-c33b-4b8c-8c89-1fcc51a4a1e6}, !- Handle
  Carpet - 3/4 in.,                       !- Name
  Smooth,                                 !- Roughness
  0.01905,                                !- Thickness {m}
  0.0455183217255675,                     !- Conductivity {W/m-K}
  288.332340731283,                       !- Density {kg/m3}
  1381.644,                               !- Specific Heat {J/kg-K}
  0.9,                                    !- Thermal Absorptance
  0.7,                                    !- Solar Absorptance
  0.8;                                    !- Visible Absorptance

OS:Material,
  {909efb63-db74-4c40-9791-c863730b5068}, !- Handle
  Plywood - 5/8 in.,                      !- Name
  Smooth,                                 !- Roughness
  0.016002,                               !- Thickness {m}
  0.115440002246971,                      !- Conductivity {W/m-K}
  480.553901218804,                       !- Density {kg/m3}
  1884.06;                                !- Specific Heat {J/kg-K}

OS:Material,
  {fca9be71-e36e-437e-8f60-2b5ffa6e1ac6}, !- Handle
  Compliance Insulation R1.35,            !- Name
  Smooth,                                 !- Roughness
  0.005472684,                            !- Thickness {m}
  0.0230187710627394,                     !- Conductivity {W/m-K}
  16.0184633739601,                       !- Density {kg/m3}
  1130.436;                               !- Specific Heat {J/kg-K}

OS:Material,
  {4b93f734-b0a3-470d-9a9d-8707c3aee216}, !- Handle
  Compliance Insulation R3.00,            !- Name
  MediumRough,                            !- Roughness
  0.01216152,                             !- Thickness {m}
  0.0230187710627394,                     !- Conductivity {W/m-K}
  16.0184633739601,                       !- Density {kg/m3}
  1130.436,                               !- Specific Heat {J/kg-K}
  0.9,                                    !- Thermal Absorptance
  0.7,                                    !- Solar Absorptance
  0.8;                                    !- Visible Absorptance

OS:Material,
  {996a373b-9590-49bf-85db-e9d728bce608}, !- Handle
  Compliance Insulation R6.00,            !- Name
  Smooth,                                 !- Roughness
  0.02432304,                             !- Thickness {m}
  0.0230187710627394,                     !- Conductivity {W/m-K}
  16.0184633739601,                       !- Density {kg/m3}
  1130.436;                               !- Specific Heat {J/kg-K}

OS:Material:NoMass,
  {fcc0205b-d08e-4185-88c7-87b0ea5cf21b}, !- Handle
  WoodFrameWall16inOC R11.25,             !- Name
  Smooth,                                 !- Roughness
  1.26865197459958;                       !- Thermal Resistance {m2-K/W}

OS:Material,
  {d224c765-b314-4815-9d7d-04fe70074cd1}, !- Handle
  Concrete - 140 lb/ft3 - 10 in.,         !- Name
  Smooth,                                 !- Roughness
  0.254,                                  !- Thickness {m}
  1.95140333633374,                       !- Conductivity {W/m-K}
  2239.06081041215,                       !- Density {kg/m3}
  921.096,                                !- Specific Heat {J/kg-K}
  0.9,                                    !- Thermal Absorptance
  0.7,                                    !- Solar Absorptance
  0.8;                                    !- Visible Absorptance

OS:Material:NoMass,
  {397ea3bb-efd6-4b8c-aeb7-e9d8d04a45b3}, !- Handle
  WoodRoof16OCCavInsR36,                  !- Name
  Smooth,                                 !- Roughness
  4.52347812297188,                       !- Thermal Resistance {m2-K/W}
  0.9,                                    !- Thermal Absorptance
  0.7,                                    !- Solar Absorptance
  0.8;                                    !- Visible Absorptance

OS:Material,
  {29e2b79c-53e5-492f-a06b-e8f51e53b7a7}, !- Handle
  Building Paper - 1/16 in.,              !- Name
  Smooth,                                 !- Roughness
  0.001524,                               !- Thickness {m}
  0.28851346888411,                       !- Conductivity {W/m-K}
  96.1107802437608,                       !- Density {kg/m3}
  1256.04;                                !- Specific Heat {J/kg-K}

OS:Material,
  {00e3767c-d3a0-4893-8165-d4eb69ecdc31}, !- Handle
  Fiberboard sheathing - 1/2 in.,         !- Name
  Smooth,                                 !- Roughness
  0.0127,                                 !- Thickness {m}
  0.0706139743879526,                     !- Conductivity {W/m-K}
  399.820845814045,                       !- Density {kg/m3}
  1297.908;                               !- Specific Heat {J/kg-K}

OS:Material,
  {0fe5c6f3-38aa-476a-9c7c-3205ef780ead}, !- Handle
  Roofing felt - 1/8 in.,                 !- Name
  MediumRough,                            !- Roughness
  0.001524,                               !- Thickness {m}
  1.19714916872909,                       !- Conductivity {W/m-K}
  230.665872585026,                       !- Density {kg/m3}
  1256.04,                                !- Specific Heat {J/kg-K}
  0.75,                                   !- Thermal Absorptance
  0.9,                                    !- Solar Absorptance
  0.85;                                   !- Visible Absorptance

OS:Material:NoMass,
  {33c2d025-bb9e-4067-a61f-f484dd552e0d}, !- Handle
  WoodFloor16inOCCavInsR0,                !- Name
  Smooth,                                 !- Roughness
  0.162021368987722;                      !- Thermal Resistance {m2-K/W}

OS:Material,
  {fa6ff3fa-0707-4ef1-899d-a0ad0b7f1d9a}, !- Handle
  Stone - 1 in.,                          !- Name
  MediumRough,                            !- Roughness
  0.0254,                                 !- Thickness {m}
  1.80342552235899,                       !- Conductivity {W/m-K}
  2239.06081041215,                       !- Density {kg/m3}
  921.096,                                !- Specific Heat {J/kg-K}
  0.85,                                   !- Thermal Absorptance
  0.92,                                   !- Solar Absorptance
  0.85;                                   !- Visible Absorptance

OS:Material:NoMass,
  {e34752b0-283c-4320-8cac-445f0d91eea1}, !- Handle
  WoodFraming16inOC,                      !- Name
  Smooth,                                 !- Roughness
  0.14969365612996;                       !- Thermal Resistance {m2-K/W}

OS:Material,
  {ed6557d1-cb7d-4a85-8a80-044302109d6d}, !- Handle
  Concrete - 140 lb/ft3 - 8 in.,          !- Name
  Smooth,                                 !- Roughness
  0.2032,                                 !- Thickness {m}
  1.95140333633374,                       !- Conductivity {W/m-K}
  2239.06081041215,                       !- Density {kg/m3}
  921.096;                                !- Specific Heat {J/kg-K}

OS:Material,
  {97cd80ff-72a7-4d79-94c9-d5ece9db76a8}, !- Handle
  Concrete - 140 lb/ft3 - 4 in.,          !- Name
  Smooth,                                 !- Roughness
  0.1016,                                 !- Thickness {m}
  1.95140333633374,                       !- Conductivity {W/m-K}
  2239.06081041215,                       !- Density {kg/m3}
  921.096;                                !- Specific Heat {J/kg-K}

OS:Material,
  {d9d03a2f-2596-4f15-8c62-58986a7dd299}, !- Handle
  Compliance Insulation R0.10,            !- Name
  Smooth,                                 !- Roughness
  0.000405384,                            !- Thickness {m}
  0.0230187710627394,                     !- Conductivity {W/m-K}
  16.0184633739601,                       !- Density {kg/m3}
  1130.436;                               !- Specific Heat {J/kg-K}

OS:Material:NoMass,
  {72302df5-00f6-4a17-a3ec-bbefc8e11b23}, !- Handle
  WoodFrameWall16inOCCavInsR19,           !- Name
  Smooth,                                 !- Roughness