
OS:Version,
  {2911fe78-02cc-46af-beaf-b76e6c82241b}, !- Handle
  2.7.2;                                  !- Version Identifier

OS:SimulationControl,
  {90d9934c-70f7-4575-ac4d-3ae73d3b0a3d}, !- Handle
  ,                                       !- Do Zone Sizing Calculation
  ,                                       !- Do System Sizing Calculation
  ,                                       !- Do Plant Sizing Calculation
  No,                                     !- Run Simulation for Sizing Periods
  Yes,                                    !- Run Simulation for Weather File Run Periods
  ,                                       !- Loads Convergence Tolerance Value
  ,                                       !- Temperature Convergence Tolerance Value {deltaC}
  FullExterior,                           !- Solar Distribution
  50;                                     !- Maximum Number of Warmup Days

OS:YearDescription,
  {437fdf62-905a-452d-a8b1-a07e44ce3ac9}, !- Handle
  2009,                                   !- Calendar Year
  ,                                       !- Day of Week for Start Day
  ;                                       !- Is Leap Year

OS:RunPeriod,
  {278c8156-9a59-4d45-a97f-2d1ff716fe45}, !- Handle
  SAN-DIEGO-LINDBERGH_722900_CZ2010,      !- Name
  1,                                      !- Begin Month
  1,                                      !- Begin Day of Month
  12,                                     !- End Month
  31,                                     !- End Day of Month
  No,                                     !- Use Weather File Holidays and Special Days
  No,                                     !- Use Weather File Daylight Saving Period
  Yes,                                    !- Apply Weekend Holiday Rule
  ,                                       !- Use Weather File Rain Indicators
  ,                                       !- Use Weather File Snow Indicators
  ;                                       !- Number of Times Runperiod to be Repeated

OS:Site,
  {67d0f1ce-f5be-4dcf-a177-d0db3c852da2}, !- Handle
  SAN-DIEGO-LINDBERGH-FIEL Design_Conditions, !- Name
  32.72,                                  !- Latitude {deg}
  -117.17,                                !- Longitude {deg}
  -8,                                     !- Time Zone {hr}
  3.9624,                                 !- Elevation {m}
  ;                                       !- Terrain

OS:SizingPeriod:DesignDay,
  {0632b0f2-f77a-4855-81bc-03fd8d85bdb7}, !- Handle
  SAN-DIEGO-LINDBERGH-FIEL Ann Htg 99.6% Condns DB, !- Name
  7.2,                                    !- Maximum Dry-Bulb Temperature {C}
  0,                                      !- Daily Dry-Bulb Temperature Range {deltaC}
  7.2,                                    !- Humidity Indicating Conditions at Maximum Dry-Bulb
  101277,                                 !- Barometric Pressure {Pa}
  0.8,                                    !- Wind Speed {m/s}
  337,                                    !- Wind Direction {deg}
  0,                                      !- Sky Clearness
  0,                                      !- Rain Indicator
  0,                                      !- Snow Indicator
  21,                                     !- Day of Month
  1,                                      !- Month
  WinterDesignDay,                        !- Day Type
  0,                                      !- Daylight Saving Time Indicator
  Wetbulb,                                !- Humidity Indicating Type
  ,                                       !- Humidity Indicating Day Schedule Name
  DefaultMultipliers,                     !- Dry-Bulb Temperature Range Modifier Type
  ,                                       !- Dry-Bulb Temperature Range Modifier Schedule Name
  ASHRAEClearSky;                         !- Solar Model Indicator

OS:SizingPeriod:DesignDay,
  {46be0bc5-e279-4e27-8a3a-ec14c83ae84d}, !- Handle
  SAN-DIEGO-LINDBERGH-FIEL Ann Clg 0.4% Condns DB=>MCWB, !- Name
  28.3,                                   !- Maximum Dry-Bulb Temperature {C}
  4.1,                                    !- Daily Dry-Bulb Temperature Range {deltaC}
  17.9,                                   !- Humidity Indicating Conditions at Maximum Dry-Bulb
  101277,                                 !- Barometric Pressure {Pa}
  4.1,                                    !- Wind Speed {m/s}
  292,                                    !- Wind Direction {deg}
  0,                                      !- Sky Clearness
  0,                                      !- Rain Indicator
  0,                                      !- Snow Indicator
  21,                                     !- Day of Month
  8,                                      !- Month
  SummerDesignDay,                        !- Day Type
  0,                                      !- Daylight Saving Time Indicator
  Wetbulb,                                !- Humidity Indicating Type
  ,                                       !- Humidity Indicating Day Schedule Name
  DefaultMultipliers,                     !- Dry-Bulb Temperature Range Modifier Type
  ,                                       !- Dry-Bulb Temperature Range Modifier Schedule Name
  ASHRAETau,                              !- Solar Model Indicator
  ,                                       !- Beam Solar Day Schedule Name
  ,                                       !- Diffuse Solar Day Schedule Name
  0.426,                                  !- ASHRAE Taub {dimensionless}
  2.214;                                  !- ASHRAE Taud {dimensionless}

OS:SizingPeriod:DesignDay,
  {15f22506-3d89-44bf-940e-62d766a8401b}, !- Handle
  SAN-DIEGO-LINDBERGH-FIEL Ann Clg 0.4% Condns DP=>MCDB, !- Name
  23.4,                                   !- Maximum Dry-Bulb Temperature {C}
  4.1,                                    !- Daily Dry-Bulb Temperature Range {deltaC}
  20.5,                                   !- Humidity Indicating Conditions at Maximum Dry-Bulb
  101277,                                 !- Barometric Pressure {Pa}
  0,                                      !- Wind Speed {m/s}
  292,                                    !- Wind Direction {deg}
  0,                                      !- Sky Clearness
  0,                                      !- Rain Indicator
  0,                                      !- Snow Indicator
  21,                                     !- Day of Month
  8,                                      !- Month
  SummerDesignDay,                        !- Day Type
  0,                                      !- Daylight Saving Time Indicator
  Dewpoint,                               !- Humidity Indicating Type
  ,                                       !- Humidity Indicating Day Schedule Name
  DefaultMultipliers,                     !- Dry-Bulb Temperature Range Modifier Type
  ,                                       !- Dry-Bulb Temperature Range Modifier Schedule Name
  ASHRAETau,                              !- Solar Model Indicator
  ,                                       !- Beam Solar Day Schedule Name
  ,                                       !- Diffuse Solar Day Schedule Name
  0.426,                                  !- ASHRAE Taub {dimensionless}
  2.214;                                  !- ASHRAE Taud {dimensionless}

OS:SizingPeriod:DesignDay,
  {f675dc4b-dcc4-4df2-a983-0de775299b67}, !- Handle
  SAN-DIEGO-LINDBERGH-FIEL JUN Clg 0.4% Condns DB=>MCWB, !- Name
  27,                                     !- Maximum Dry-Bulb Temperature {C}
  4.9,                                    !- Daily Dry-Bulb Temperature Range {deltaC}
  19.7,                                   !- Humidity Indicating Conditions at Maximum Dry-Bulb
  101277,                                 !- Barometric Pressure {Pa}
  4,                                      !- Wind Speed {m/s}
  292,                                    !- Wind Direction {deg}
  0,                                      !- Sky Clearness
  0,                                      !- Rain Indicator
  0,                                      !- Snow Indicator
  21,                                     !- Day of Month
  6,                                      !- Month
  SummerDesignDay,                        !- Day Type
  0,                                      !- Daylight Saving Time Indicator
  Wetbulb,                                !- Humidity Indicating Type
  ,                                       !- Humidity Indicating Day Schedule Name
  DefaultMultipliers,                     !- Dry-Bulb Temperature Range Modifier Type
  ,                                       !- Dry-Bulb Temperature Range Modifier Schedule Name
  ASHRAETau,                              !- Solar Model Indicator
  ,                                       !- Beam Solar Day Schedule Name
  ,                                       !- Diffuse Solar Day Schedule Name
  0.39,                                   !- ASHRAE Taub {dimensionless}
  2.3;                                    !- ASHRAE Taud {dimensionless}

OS:SizingPeriod:DesignDay,
  {eac97992-3783-4199-bedd-40ccea864d6a}, !- Handle
  SAN-DIEGO-LINDBERGH-FIEL JUL Clg 0.4% Condns DB=>MCWB, !- Name
  28,                                     !- Maximum Dry-Bulb Temperature {C}
  4.2,                                    !- Daily Dry-Bulb Temperature Range {deltaC}
  20.6,                                   !- Humidity Indicating Conditions at Maximum Dry-Bulb
  101277,                                 !- Barometric Pressure {Pa}
  3.8,                                    !- Wind Speed {m/s}
  270,                                    !- Wind Direction {deg}
  0,                                      !- Sky Clearness
  0,                                      !- Rain Indicator
  0,                                      !- Snow Indicator
  21,                                     !- Day of Month
  7,                                      !- Month
  SummerDesignDay,                        !- Day Type
  0,                                      !- Daylight Saving Time Indicator
  Wetbulb,                                !- Humidity Indicating Type
  ,                                       !- Humidity Indicating Day Schedule Name
  DefaultMultipliers,                     !- Dry-Bulb Temperature Range Modifier Type
  ,                                       !- Dry-Bulb Temperature Range Modifier Schedule Name
  ASHRAETau,                              !- Solar Model Indicator
  ,                                       !- Beam Solar Day Schedule Name
  ,                                       !- Diffuse Solar Day Schedule Name
  0.433,                                  !- ASHRAE Taub {dimensionless}
  2.158;                                  !- ASHRAE Taud {dimensionless}

OS:SizingPeriod:DesignDay,
  {7d7ab5d9-286a-4dda-9058-bc6aee52f0c7}, !- Handle
  SAN-DIEGO-LINDBERGH-FIEL AUG Clg 0.4% Condns DB=>MCWB, !- Name
  27.9,                                   !- Maximum Dry-Bulb Temperature {C}
  4.1,                                    !- Daily Dry-Bulb Temperature Range {deltaC}
  20.7,                                   !- Humidity Indicating Conditions at Maximum Dry-Bulb
  101277,                                 !- Barometric Pressure {Pa}
  4.6,                                    !- Wind Speed {m/s}
  315,                                    !- Wind Direction {deg}
  0,                                      !- Sky Clearness
  0,                                      !- Rain Indicator
  0,                                      !- Snow Indicator
  21,                                     !- Day of Month
  8,                                      !- Month
  SummerDesignDay,                        !- Day Type
  0,                                      !- Daylight Saving Time Indicator
  Wetbulb,                                !- Humidity Indicating Type
  ,                                       !- Humidity Indicating Day Schedule Name
  DefaultMultipliers,                     !- Dry-Bulb Temperature Range Modifier Type
  ,                                       !- Dry-Bulb Temperature Range Modifier Schedule Name
  ASHRAETau,                              !- Solar Model Indicator
  ,                                       !- Beam Solar Day Schedule Name
  ,                                       !- Diffuse Solar Day Schedule Name
  0.426,                                  !- ASHRAE Taub {dimensionless}
  2.214;                                  !- ASHRAE Taud {dimensionless}

OS:SizingPeriod:DesignDay,
  {2cab597e-884b-4f61-bff1-941cc63cb2c3}, !- Handle
  SAN-DIEGO-LINDBERGH-FIEL SEP Clg 0.4% Condns DB=>MCWB, !- Name
  30.6,                                   !- Maximum Dry-Bulb Temperature {C}
  4.6,                                    !- Daily Dry-Bulb Temperature Range {deltaC}
  21.2,                                   !- Humidity Indicating Conditions at Maximum Dry-Bulb
  101277,                                 !- Barometric Pressure {Pa}
  3.2,                                    !- Wind Speed {m/s}
  337,                                    !- Wind Direction {deg}
  0,                                      !- Sky Clearness
  0,                                      !- Rain Indicator
  0,                                      !- Snow Indicator
  21,                                     !- Day of Month
  9,                                      !- Month
  SummerDesignDay,                        !- Day Type
  0,                                      !- Daylight Saving Time Indicator
  Wetbulb,                                !- Humidity Indicating Type
  ,                                       !- Humidity Indicating Day Schedule Name
  DefaultMultipliers,                     !- Dry-Bulb Temperature Range Modifier Type
  ,                                       !- Dry-Bulb Temperature Range Modifier Schedule Name
  ASHRAETau,                              !- Solar Model Indicator
  ,                                       !- Beam Solar Day Schedule Name
  ,                                       !- Diffuse Solar Day Schedule Name
  0.383,                                  !- ASHRAE Taub {dimensionless}
  2.401;                                  !- ASHRAE Taud {dimensionless}

OS:SizingPeriod:DesignDay,
  {611072b0-d872-4c66-880b-3fdb69f941b4}, !- Handle
  SAN-DIEGO-LINDBERGH-FIEL OCT Clg 0.4% Condns DB=>MCWB, !- Name
  30.3,                                   !- Maximum Dry-Bulb Temperature {C}
  9.2,                                    !- Daily Dry-Bulb Temperature Range {deltaC}
  15.9,                                   !- Humidity Indicating Conditions at Maximum Dry-Bulb
  101277,                                 !- Barometric Pressure {Pa}
  3.5,                                    !- Wind Speed {m/s}
  292,                                    !- Wind Direction {deg}
  0,                                      !- Sky Clearness
  0,                                      !- Rain Indicator
  0,                                      !- Snow Indicator
  21,                                     !- Day of Month
  10,                                     !- Month
  SummerDesignDay,                        !- Day Type
  0,                                      !- Daylight Saving Time Indicator
  Wetbulb,                                !- Humidity Indicating Type
  ,                                       !- Humidity Indicating Day Schedule Name
  DefaultMultipliers,                     !- Dry-Bulb Temperature Range Modifier Type
  ,                                       !- Dry-Bulb Temperature Range Modifier Schedule Name
  ASHRAETau,                              !- Solar Model Indicator
  ,                                       !- Beam Solar Day Schedule Name
  ,                                       !- Diffuse Solar Day Schedule Name
  0.367,                                  !- ASHRAE Taub {dimensionless}
  2.359;                                  !- ASHRAE Taud {dimensionless}

OS:SizingPeriod:DesignDay,
  {ab02e5e3-1769-4fba-b08b-226b9476e0f9}, !- Handle
  SAN-DIEGO-LINDBERGH-FIEL NOV Clg 0.4% Condns DB=>MCWB, !- Name
  28.3,                                   !- Maximum Dry-Bulb Temperature {C}
  7.8,                                    !- Daily Dry-Bulb Temperature Range {deltaC}
  14.3,                                   !- Humidity Indicating Conditions at Maximum Dry-Bulb
  101277,                                 !- Barometric Pressure {Pa}
  0,                                      !- Wind Speed {m/s}
  247,                                    !- Wind Direction {deg}
  0,                                      !- Sky Clearness
  0,                                      !- Rain Indicator
  0,                                      !- Snow Indicator
  21,                                     !- Day of Month
  11,                                     !- Month
  SummerDesignDay,                        !- Day Type
  0,                                      !- Daylight Saving Time Indicator
  Wetbulb,                                !- Humidity Indicating Type
  ,                                       !- Humidity Indicating Day Schedule Name
  DefaultMultipliers,                     !- Dry-Bulb Temperature Range Modifier Type
  ,                                       !- Dry-Bulb Temperature Range Modifier Schedule Name
  ASHRAETau,                              !- Solar Model Indicator
  ,                                       !- Beam Solar Day Schedule Name
  ,                                       !- Diffuse Solar Day Schedule Name
  0.329,                                  !- ASHRAE Taub {dimensionless}
  2.535;                                  !- ASHRAE Taud {dimensionless}

OS:WeatherFile,
  {706888d2-413f-42f5-9d08-e3195a955c6f}, !- Handle
  SAN-DIEGO-LINDBERGH-FIEL,               !- City
  -,                                      !- State Province Region
  USA,                                    !- Country
  Custom-722900,                          !- Data Source
  722900,                                 !- WMO Number
  32.73,                                  !- Latitude {deg}
  -117.17,                                !- Longitude {deg}
  -8,                                     !- Time Zone {hr}
  4,                                      !- Elevation {m}
  file:///C:/Users/agoyal/Documents/CBECC-Com 2019 Data/EPW/SAN-DIEGO-LINDBERGH_722900_CZ2010.epw, !- Url
  47C406A7;                               !- Checksum

OS:Sizing:Parameters,
  {2650ffbd-16c2-4421-a8e7-5eba975a9656}, !- Handle
  1,                                      !- Heating Sizing Factor
  1;                                      !- Cooling Sizing Factor

OS:Material,
  {3f5b8e11-1c4f-46c6-a3e9-fe4a04345d15}, !- Handle
  Gypsum Board - 1/2 in.,                 !- Name
  Smooth,                                 !- Roughness
  0.0127,                                 !- Thickness {m}
  0.158656446866265,                      !- Conductivity {W/m-K}
  640.738534958406,                       !- Density {kg/m3}
  1130.436,                               !- Specific Heat {J/kg-K}
  0.9,                                    !- Thermal Absorptance
  0.7,                                    !- Solar Absorptance
  0.8;                                    !- Visible Absorptance

OS:Material,
  {4b94266d-9e28-4439-8bf8-0b34fa3c64d2}, !- Handle
  Gypsum Board - 5/8 in.,                 !- Name
  MediumRough,                            !- Roughness
  0.016002,                               !- Thickness {m}
  0.158656446866265,                      !- Conductivity {W/m-K}
  640.738534958406,                       !- Density {kg/m3}
  1130.436,                               !- Specific Heat {J/kg-K}
  0.9,                                    !- Thermal Absorptance
  0.7,                                    !- Solar Absorptance
  0.8;                                    !- Visible Absorptance

OS:Material,
  {0859e301-b4d9-4977-9f8f-7286598d80b4}, !- Handle
  Stucco - 7/8 in.,                       !- Name
  MediumRough,                            !- Roughness
  0.022352,                               !- Thickness {m}
  0.700947539880412,                      !- Conductivity {W/m-K}
  1855.09824333832,                       !- Density {kg/m3}
  837.36,                                 !- Specific Heat {J/kg-K}
  0.9,                                    !- Thermal Absorptance
  0.7,                                    !- Solar Absorptance
  0.8;                                    !- Visible Absorptance

OS:Material,
  {bd9f0072-7d3c-47d6-8774-78910dab2a0f}, !- Handle
  Carpet - 3/4 in.,                       !- Name
  Smooth,                                 !- Roughness
  0.01905,                                !- Thickness {m}
  0.0455183217255675,                     !- Conductivity {W/m-K}
  288.332340731283,                       !- Density {kg/m3}
  1381.644,                               !- Specific Heat {J/kg-K}
  0.9,                                    !- Thermal Absorptance
  0.7,                                    !- Solar Absorptance
  0.8;                                    !- Visible Absorptance

OS:Material,
  {679292a2-54a3-4c4e-ad29-2f6ab93a26e9}, !- Handle
  Plywood - 5/8 in.,                      !- Name
  Smooth,                                 !- Roughness
  0.016002,                               !- Thickness {m}
  0.115440002246971,                      !- Conductivity {W/m-K}
  480.553901218804,                       !- Density {kg/m3}
  1884.06;                                !- Specific Heat {J/kg-K}

OS:Material,
  {b734a7a8-0e12-4748-8b32-9c4ba53c1b3c}, !- Handle
  Concrete - 140 lb/ft3 - 4 in.,          !- Name
  Smooth,                                 !- Roughness
  0.1016,                                 !- Thickness {m}
  1.95140333633374,                       !- Conductivity {W/m-K}
  2239.06081041215,                       !- Density {kg/m3}
  921.096;                                !- Specific Heat {J/kg-K}

OS:Material,
  {85b7ed4d-7234-481a-8618-643aa41e5f73}, !- Handle
  Compliance Insulation R0.20,            !- Name
  Smooth,                                 !- Roughness
  0.000810768,                            !- Thickness {m}
  0.0230187710627394,                     !- Conductivity {W/m-K}
  16.0184633739601,                       !- Density {kg/m3}
  1130.436;                               !- Specific Heat {J/kg-K}

OS:Material,
  {46efcb53-bdac-4ae3-8b88-cdd0df0482bb}, !- Handle
  Concrete - Solid Grout - 115 lb/ft3 - 8 in., !- Name
  Smooth,                                 !- Roughness
  0.2032,                                 !- Thickness {m}
  1.31570449337553,                       !- Conductivity {W/m-K}
  1858.14175137938,                       !- Density {kg/m3}
  837.36;                                 !- Specific Heat {J/kg-K}

OS:Material,
  {9ac2bd6d-202b-40dd-a8bc-4b3789a7867c}, !- Handle
  Compliance Insulation R10.06,           !- Name
  Smooth,                                 !- Roughness
  0.040781732,                            !- Thickness {m}
  0.0230187710627394,                     !- Conductivity {W/m-K}
  16.0184633739601,                       !- Density {kg/m3}
  1130.436;                               !- Specific Heat {J/kg-K}

OS:Material,
  {3eca9e24-d733-434b-b666-165b3559f3e0}, !- Handle
  Compliance Insulation R2.00,            !- Name
  Smooth,                                 !- Roughness
  0.00810768,                             !- Thickness {m}
  0.0230187710627394,                     !- Conductivity {W/m-K}
  16.0184633739601,                       !- Density {kg/m3}
  1130.436;                               !- Specific Heat {J/kg-K}

OS:Material,
  {67eda6c1-e4cb-4eb3-ad6a-94a03ce3c2e1}, !- Handle
  Compliance Insulation R0.10,            !- Name
  Smooth,                                 !- Roughness
  0.000405384,                            !- Thickness {m}
  0.0230187710627394,                     !- Conductivity {W/m-K}
  16.0184633739601,                       !- Density {kg/m3}
  1130.436;                               !- Specific Heat {J/kg-K}

OS:Material,
  {d7a282d0-5d24-422f-b0e0-72caf7c82abb}, !- Handle
  Air - Metal Wall Framing - 16 or 24 in. OC, !- Name
  Smooth,                                 !- Roughness
  0.1397,                                 !- Thickness {m}
  1.22016793979183,                       !- Conductivity {W/m-K}
  1.28147706991681,                       !- Density {kg/m3}
  1004.832;                               !- Specific Heat {J/kg-K}

OS:Material,
  {d4046bcb-8a20-4090-83ed-cb7f7b57e069}, !- Handle
  Compliance Insulation R7.39,            !- Name
  Smooth,                                 !- Roughness
  0.029957776,                            !- Thickness {m}
  0.0230187710627394,                     !- Conductivity {W/m-K}
  16.0184633739601,                       !- Density {kg/m3}
  1130.436;                               !- Specific Heat {J/kg-K}

OS:Material,
  {8d05a9bc-76a3-4443-b858-79ade3b6b34f}, !- Handle
  Metal Standing Seam - 1/16 in.,         !- Name
  MediumRough,                            !- Roughness
  0.0015875,                              !- Thickness {m}
  2.21534037295537,                       !- Conductivity {W/m-K}
  7820.53418843482,                       !- Density {kg/m3}
  502.416,                                !- Specific Heat {J/kg-K}
  0.85,                                   !- Thermal Absorptance
  0.37,                                   !- Solar Absorptance
  0.85;                                   !- Visible Absorptance

OS:Material,
  {f2f56cdc-2d98-4535-872a-0e767695b53f}, !- Handle
  Compliance Insulation R24.86,           !- Name
  Smooth,                                 !- Roughness
  0.100778564,                            !- Thickness {m}
  0.0230187710627394,                     !- Conductivity {W/m-K}
  16.0184633739601,                       !- Density {kg/m3}
  1130.436,                               !- Specific Heat {J/kg-K}
  0.9,                                    !- Thermal Absorptance
  0.7,                                    !- Solar Absorptance
  0.8;                                    !- Visible Absorptance

OS:Material,
  {b14e9b0f-3517-4b53-bf30-4caf74201e91}, !- Handle
  Compliance Insulation R19.63,           !- Name
  Smooth,                                 !- Roughness
  0.07957693,                             !- Thickness {m}
  0.0230187710627394,                     !- Conductivity {W/m-K}
  16.0184633739601,                       !- Density {kg/m3}
  1130.436,                               !- Specific Heat {J/kg-K}
  0.9,                                    !- Thermal Absorptance
  0.7,                                    !- Solar Absorptance
  0.8;                                    !- Visible Absorptance

OS:Material,
  {3958b5d9-c7d1-4762-be57-a34bcddbb292}, !- Handle
  Compliance Insulation R9.83,            !- Name
  MediumRough,                            !- Roughness
  0.03986911,                             !- Thickness {m}
  0.0230187710627394,                     !- Conductivity {W/m-K}
  16.0184633739601,                       !- Density {kg/m3}
  1130.436,                               !- Specific Heat {J/kg-K}
  0.9,                                    !- Thermal Absorptance
  0.7,                                    !- Solar Absorptance
  0.8;                                    !- Visible Absorptance

OS:Material,
  {3d96c941-4065-4f1d-8a01-07ebb7a16dbe}, !- Handle
  Metal Deck - 1/16 in.,                  !- Name
  MediumRough,                            !- Roughness
  0.0015875,                              !- Thickness {m}
  45.3452482589303,                       !- Conductivity {W/m-K}
  7820.53418843482,                       !- Density {kg/m3}
  502.416,                                !- Specific Heat {J/kg-K}
  0.9,                                    !- Thermal Absorptance
  0.7,                                    !- Solar Absorptance
  0.8;                                    !- Visible Absorptance

OS:Construction,
  {7f7c6eac-3329-48a9-b01e-419d3dcfaa7a}, !- Handle
  MetalFrameWallU069,                     !- Name
  ,                                       !- Surface Rendering Name
  {0859e301-b4d9-4977-9f8f-7286598d80b4}, !- Layer 1
  {9ac2bd6d-202b-40dd-a8bc-4b3789a7867c}, !- Layer 2
  {3eca9e24-d733-434b-b666-165b3559f3e0}, !- Layer 3
  {85b7ed4d-7234-481a-8618-643aa41e5f73}, !- Layer 4
  {67eda6c1-e4cb-4eb3-ad6a-94a03ce3c2e1}, !- Layer 5
  {d7a282d0-5d24-422f-b0e0-72caf7c82abb}, !- Layer 6
  {3f5b8e11-1c4f-46c6-a3e9-fe4a04345d15}; !- Layer 7

OS:Construction,
  {03e6bb01-9169-4d24-afe0-132e1063c7f7}, !- Handle
  MetalFrameWallU105,                     !- Name
  ,                                       !- Surface Rendering Name
  {d13e9ca4-8c25-4efd-99b3-aff69a143b74}, !- Layer 1
  {d4046bcb-8a20-4090-83ed-cb7f7b57e069}, !- Layer 2
  {fc84f758-5791-40fd-aea6-0f9361aa0c0f}, !- Layer 3
  {d2b7a9b3-023b-4188-9d78-c2e5b1a8d59e}; !- Layer 4

OS:Material,
  {d13e9ca4-8c25-4efd-99b3-aff69a143b74}, !- Handle
  Stucco - 7/8 in. 1,                     !- Name
  MediumRough,                            !- Roughness
  0.022352,                               !- Thickness {m}
  0.700947539880412,                      !- Conductivity {W/m-K}
  1855.09824333832,                       !- Density {kg/m3}
  837.36,                                 !- Specific Heat {J/kg-K}
  0.9,                                    !- Thermal Absorptance
  0.7,                                    !- Solar Absorptance
  0.8;                                    !- Visible Absorptance

OS:Material,
  {fc84f758-5791-40fd-aea6-0f9361aa0c0f}, !- Handle
  Air - Metal Wall Framing - 16 or 24 in. OC 1, !- Name
  Smooth,                                 !- Roughness
  0.1397,                                 !- Thickness {m}
  1.22016793979183,                       !- Conductivity {W/m-K}
  1.28147706991681,                       !- Density {kg/m3}
  1004.832;                               !- Specific Heat {J/kg-K}

OS:Material,