
OS:Version,
  {15860cb9-2081-435d-a3cd-ef6676989ca4}, !- Handle
  2.7.2;                                  !- Version Identifier

OS:SimulationControl,
  {547edb65-b047-43ec-911c-a803df9207c5}, !- Handle
  ,                                       !- Do Zone Sizing Calculation
  ,                                       !- Do System Sizing Calculation
  ,                                       !- Do Plant Sizing Calculation
  No,                                     !- Run Simulation for Sizing Periods
  Yes,                                    !- Run Simulation for Weather File Run Periods
  ,                                       !- Loads Convergence Tolerance Value
  ,                                       !- Temperature Convergence Tolerance Value {deltaC}
  FullExterior,                           !- Solar Distribution
  50;                                     !- Maximum Number of Warmup Days

OS:YearDescription,
  {3903c53f-59c0-4777-bd99-36c65734b4a1}, !- Handle
  2009,                                   !- Calendar Year
  ,                                       !- Day of Week for Start Day
  ;                                       !- Is Leap Year

OS:RunPeriod,
  {16c8d99f-c87a-4a51-9c0f-6b1bd3885ce2}, !- Handle
  PALMDALE_723820_CZ2010,                 !- Name
  1,                                      !- Begin Month
  1,                                      !- Begin Day of Month
  12,                                     !- End Month
  31,                                     !- End Day of Month
  No,                                     !- Use Weather File Holidays and Special Days
  No,                                     !- Use Weather File Daylight Saving Period
  Yes,                                    !- Apply Weekend Holiday Rule
  ,                                       !- Use Weather File Rain Indicators
  ,                                       !- Use Weather File Snow Indicators
  ;                                       !- Number of Times Runperiod to be Repeated

OS:Site,
  {c6bf3ff8-5b96-46df-904d-a6d1a1b9f4f2}, !- Handle
  PALMDALE-AIRPORT Design_Conditions,     !- Name
  34.62,                                  !- Latitude {deg}
  -118.07,                                !- Longitude {deg}
  -8,                                     !- Time Zone {hr}
  769.0104,                               !- Elevation {m}
  ;                                       !- Terrain

OS:SizingPeriod:DesignDay,
  {efbde318-c484-4cba-b081-b3b8caec0f92}, !- Handle
  PALMDALE-AIRPORT Ann Htg 99.6% Condns DB, !- Name
  -3.8,                                   !- Maximum Dry-Bulb Temperature {C}
  0,                                      !- Daily Dry-Bulb Temperature Range {deltaC}
  -3.8,                                   !- Humidity Indicating Conditions at Maximum Dry-Bulb
  92422,                                  !- Barometric Pressure {Pa}
  1.8,                                    !- Wind Speed {m/s}
  180,                                    !- Wind Direction {deg}
  0,                                      !- Sky Clearness
  0,                                      !- Rain Indicator
  0,                                      !- Snow Indicator
  21,                                     !- Day of Month
  1,                                      !- Month
  WinterDesignDay,                        !- Day Type
  0,                                      !- Daylight Saving Time Indicator
  Wetbulb,                                !- Humidity Indicating Type
  ,                                       !- Humidity Indicating Day Schedule Name
  DefaultMultipliers,                     !- Dry-Bulb Temperature Range Modifier Type
  ,                                       !- Dry-Bulb Temperature Range Modifier Schedule Name
  ASHRAEClearSky;                         !- Solar Model Indicator

OS:SizingPeriod:DesignDay,
  {0f865819-14b3-4672-8653-d01c988a8634}, !- Handle
  PALMDALE-AIRPORT Ann Clg 0.4% Condns DB=>MCWB, !- Name
  39,                                     !- Maximum Dry-Bulb Temperature {C}
  16.2,                                   !- Daily Dry-Bulb Temperature Range {deltaC}
  18.9,                                   !- Humidity Indicating Conditions at Maximum Dry-Bulb
  92422,                                  !- Barometric Pressure {Pa}
  5.6,                                    !- Wind Speed {m/s}
  225,                                    !- Wind Direction {deg}
  0,                                      !- Sky Clearness
  0,                                      !- Rain Indicator
  0,                                      !- Snow Indicator
  21,                                     !- Day of Month
  7,                                      !- Month
  SummerDesignDay,                        !- Day Type
  0,                                      !- Daylight Saving Time Indicator
  Wetbulb,                                !- Humidity Indicating Type
  ,                                       !- Humidity Indicating Day Schedule Name
  DefaultMultipliers,                     !- Dry-Bulb Temperature Range Modifier Type
  ,                                       !- Dry-Bulb Temperature Range Modifier Schedule Name
  ASHRAETau,                              !- Solar Model Indicator
  ,                                       !- Beam Solar Day Schedule Name
  ,                                       !- Diffuse Solar Day Schedule Name
  0.434,                                  !- ASHRAE Taub {dimensionless}
  2.033;                                  !- ASHRAE Taud {dimensionless}

OS:SizingPeriod:DesignDay,
  {c317a141-ca6c-42f2-b410-ddb514c21fc5}, !- Handle
  PALMDALE-AIRPORT Ann Clg 0.4% Condns DP=>MCDB, !- Name
  29.3,                                   !- Maximum Dry-Bulb Temperature {C}
  16.2,                                   !- Daily Dry-Bulb Temperature Range {deltaC}
  17.1,                                   !- Humidity Indicating Conditions at Maximum Dry-Bulb
  92422,                                  !- Barometric Pressure {Pa}
  5.4,                                    !- Wind Speed {m/s}
  225,                                    !- Wind Direction {deg}
  0,                                      !- Sky Clearness
  0,                                      !- Rain Indicator
  0,                                      !- Snow Indicator
  21,                                     !- Day of Month
  7,                                      !- Month
  SummerDesignDay,                        !- Day Type
  0,                                      !- Daylight Saving Time Indicator
  Dewpoint,                               !- Humidity Indicating Type
  ,                                       !- Humidity Indicating Day Schedule Name
  DefaultMultipliers,                     !- Dry-Bulb Temperature Range Modifier Type
  ,                                       !- Dry-Bulb Temperature Range Modifier Schedule Name
  ASHRAETau,                              !- Solar Model Indicator
  ,                                       !- Beam Solar Day Schedule Name
  ,                                       !- Diffuse Solar Day Schedule Name
  0.434,                                  !- ASHRAE Taub {dimensionless}
  2.033;                                  !- ASHRAE Taud {dimensionless}

OS:SizingPeriod:DesignDay,
  {bec5f85f-d10b-4cdc-b841-ac5ec4130060}, !- Handle
  PALMDALE-AIRPORT JUN Clg 0.4% Condns DB=>MCWB, !- Name
  38.8,                                   !- Maximum Dry-Bulb Temperature {C}
  17,                                     !- Daily Dry-Bulb Temperature Range {deltaC}
  18.6,                                   !- Humidity Indicating Conditions at Maximum Dry-Bulb
  92422,                                  !- Barometric Pressure {Pa}
  5.9,                                    !- Wind Speed {m/s}
  247,                                    !- Wind Direction {deg}
  0,                                      !- Sky Clearness
  0,                                      !- Rain Indicator
  0,                                      !- Snow Indicator
  21,                                     !- Day of Month
  6,                                      !- Month
  SummerDesignDay,                        !- Day Type
  0,                                      !- Daylight Saving Time Indicator
  Wetbulb,                                !- Humidity Indicating Type
  ,                                       !- Humidity Indicating Day Schedule Name
  DefaultMultipliers,                     !- Dry-Bulb Temperature Range Modifier Type
  ,                                       !- Dry-Bulb Temperature Range Modifier Schedule Name
  ASHRAETau,                              !- Solar Model Indicator
  ,                                       !- Beam Solar Day Schedule Name
  ,                                       !- Diffuse Solar Day Schedule Name
  0.37,                                   !- ASHRAE Taub {dimensionless}
  2.285;                                  !- ASHRAE Taud {dimensionless}

OS:SizingPeriod:DesignDay,
  {d61b47c0-a530-4af8-852e-4c14b621f000}, !- Handle
  PALMDALE-AIRPORT JUL Clg 0.4% Condns DB=>MCWB, !- Name
  42,                                     !- Maximum Dry-Bulb Temperature {C}
  16.2,                                   !- Daily Dry-Bulb Temperature Range {deltaC}
  20.9,                                   !- Humidity Indicating Conditions at Maximum Dry-Bulb
  92422,                                  !- Barometric Pressure {Pa}
  5.5,                                    !- Wind Speed {m/s}
  225,                                    !- Wind Direction {deg}
  0,                                      !- Sky Clearness
  0,                                      !- Rain Indicator
  0,                                      !- Snow Indicator
  21,                                     !- Day of Month
  7,                                      !- Month
  SummerDesignDay,                        !- Day Type
  0,                                      !- Daylight Saving Time Indicator
  Wetbulb,                                !- Humidity Indicating Type
  ,                                       !- Humidity Indicating Day Schedule Name
  DefaultMultipliers,                     !- Dry-Bulb Temperature Range Modifier Type
  ,                                       !- Dry-Bulb Temperature Range Modifier Schedule Name
  ASHRAETau,                              !- Solar Model Indicator
  ,                                       !- Beam Solar Day Schedule Name
  ,                                       !- Diffuse Solar Day Schedule Name
  0.434,                                  !- ASHRAE Taub {dimensionless}
  2.033;                                  !- ASHRAE Taud {dimensionless}

OS:SizingPeriod:DesignDay,
  {f199e7de-414a-40e2-837a-94c3905e2ffd}, !- Handle
  PALMDALE-AIRPORT AUG Clg 0.4% Condns DB=>MCWB, !- Name
  41,                                     !- Maximum Dry-Bulb Temperature {C}
  15.2,                                   !- Daily Dry-Bulb Temperature Range {deltaC}
  20.5,                                   !- Humidity Indicating Conditions at Maximum Dry-Bulb
  92422,                                  !- Barometric Pressure {Pa}
  4.1,                                    !- Wind Speed {m/s}
  315,                                    !- Wind Direction {deg}
  0,                                      !- Sky Clearness
  0,                                      !- Rain Indicator
  0,                                      !- Snow Indicator
  21,                                     !- Day of Month
  8,                                      !- Month
  SummerDesignDay,                        !- Day Type
  0,                                      !- Daylight Saving Time Indicator
  Wetbulb,                                !- Humidity Indicating Type
  ,                                       !- Humidity Indicating Day Schedule Name
  DefaultMultipliers,                     !- Dry-Bulb Temperature Range Modifier Type
  ,                                       !- Dry-Bulb Temperature Range Modifier Schedule Name
  ASHRAETau,                              !- Solar Model Indicator
  ,                                       !- Beam Solar Day Schedule Name
  ,                                       !- Diffuse Solar Day Schedule Name
  0.419,                                  !- ASHRAE Taub {dimensionless}
  2.093;                                  !- ASHRAE Taud {dimensionless}

OS:SizingPeriod:DesignDay,
  {3fbede92-5e35-4dc5-a396-01e3e84692c1}, !- Handle
  PALMDALE-AIRPORT SEP Clg 0.4% Condns DB=>MCWB, !- Name
  37.8,                                   !- Maximum Dry-Bulb Temperature {C}
  17.3,                                   !- Daily Dry-Bulb Temperature Range {deltaC}
  18,                                     !- Humidity Indicating Conditions at Maximum Dry-Bulb
  92422,                                  !- Barometric Pressure {Pa}
  6.4,                                    !- Wind Speed {m/s}
  247,                                    !- Wind Direction {deg}
  0,                                      !- Sky Clearness
  0,                                      !- Rain Indicator
  0,                                      !- Snow Indicator
  21,                                     !- Day of Month
  9,                                      !- Month
  SummerDesignDay,                        !- Day Type
  0,                                      !- Daylight Saving Time Indicator
  Wetbulb,                                !- Humidity Indicating Type
  ,                                       !- Humidity Indicating Day Schedule Name
  DefaultMultipliers,                     !- Dry-Bulb Temperature Range Modifier Type
  ,                                       !- Dry-Bulb Temperature Range Modifier Schedule Name
  ASHRAETau,                              !- Solar Model Indicator
  ,                                       !- Beam Solar Day Schedule Name
  ,                                       !- Diffuse Solar Day Schedule Name
  0.367,                                  !- ASHRAE Taub {dimensionless}
  2.324;                                  !- ASHRAE Taud {dimensionless}

OS:SizingPeriod:DesignDay,
  {da318a34-3d57-43df-88a0-c25a2fa56211}, !- Handle
  PALMDALE-AIRPORT OCT Clg 0.4% Condns DB=>MCWB, !- Name
  33.1,                                   !- Maximum Dry-Bulb Temperature {C}
  14.4,                                   !- Daily Dry-Bulb Temperature Range {deltaC}
  16.4,                                   !- Humidity Indicating Conditions at Maximum Dry-Bulb
  92422,                                  !- Barometric Pressure {Pa}
  2.2,                                    !- Wind Speed {m/s}
  270,                                    !- Wind Direction {deg}
  0,                                      !- Sky Clearness
  0,                                      !- Rain Indicator
  0,                                      !- Snow Indicator
  21,                                     !- Day of Month
  10,                                     !- Month
  SummerDesignDay,                        !- Day Type
  0,                                      !- Daylight Saving Time Indicator
  Wetbulb,                                !- Humidity Indicating Type
  ,                                       !- Humidity Indicating Day Schedule Name
  DefaultMultipliers,                     !- Dry-Bulb Temperature Range Modifier Type
  ,                                       !- Dry-Bulb Temperature Range Modifier Schedule Name
  ASHRAETau,                              !- Solar Model Indicator
  ,                                       !- Beam Solar Day Schedule Name
  ,                                       !- Diffuse Solar Day Schedule Name
  0.353,                                  !- ASHRAE Taub {dimensionless}
  2.301;                                  !- ASHRAE Taud {dimensionless}

OS:SizingPeriod:DesignDay,
  {14af6e99-d722-4f27-8a1a-798c1204d761}, !- Handle
  PALMDALE-AIRPORT NOV Clg 0.4% Condns DB=>MCWB, !- Name
  27,                                     !- Maximum Dry-Bulb Temperature {C}
  10.9,                                   !- Daily Dry-Bulb Temperature Range {deltaC}
  11,                                     !- Humidity Indicating Conditions at Maximum Dry-Bulb
  92422,                                  !- Barometric Pressure {Pa}
  3.4,                                    !- Wind Speed {m/s}
  22,                                     !- Wind Direction {deg}
  0,                                      !- Sky Clearness
  0,                                      !- Rain Indicator
  0,                                      !- Snow Indicator
  21,                                     !- Day of Month
  11,                                     !- Month
  SummerDesignDay,                        !- Day Type
  0,                                      !- Daylight Saving Time Indicator
  Wetbulb,                                !- Humidity Indicating Type
  ,                                       !- Humidity Indicating Day Schedule Name
  DefaultMultipliers,                     !- Dry-Bulb Temperature Range Modifier Type
  ,                                       !- Dry-Bulb Temperature Range Modifier Schedule Name
  ASHRAETau,                              !- Solar Model Indicator
  ,                                       !- Beam Solar Day Schedule Name
  ,                                       !- Diffuse Solar Day Schedule Name
  0.311,                                  !- ASHRAE Taub {dimensionless}
  2.528;                                  !- ASHRAE Taud {dimensionless}

OS:WeatherFile,
  {08ecd153-3b37-4ed2-bf1e-40ac480bf4f0}, !- Handle
  PALMDALE-AP,                            !- City
  -,                                      !- State Province Region
  USA,                                    !- Country
  Custom-723820,                          !- Data Source
  723820,                                 !- WMO Number
  34.63,                                  !- Latitude {deg}
  -118.08,                                !- Longitude {deg}
  -8,                                     !- Time Zone {hr}
  769,                                    !- Elevation {m}
  file:///C:/Users/mnakajima/Documents/CBECC-Com 2019 Data/EPW/PALMDALE_723820_CZ2010.epw, !- Url
  C80158AF;                               !- Checksum

OS:Sizing:Parameters,
  {e86aff65-d22b-4c6e-afe0-900871cdd05d}, !- Handle
  1,                                      !- Heating Sizing Factor
  1;                                      !- Cooling Sizing Factor

OS:Material,
  {4c4f41ad-4f74-4ea3-a76e-ddcbc60da913}, !- Handle
  Gypsum Board - 1/2 in.,                 !- Name
  MediumRough,                            !- Roughness
  0.0127,                                 !- Thickness {m}
  0.158656446866265,                      !- Conductivity {W/m-K}
  640.738534958406,                       !- Density {kg/m3}
  1130.436,                               !- Specific Heat {J/kg-K}
  0.9,                                    !- Thermal Absorptance
  0.7,                                    !- Solar Absorptance
  0.8;                                    !- Visible Absorptance

OS:Material,
  {ac51e8e0-e4bf-4bc6-ae1c-03defdd06c81}, !- Handle
  Gypsum Board - 5/8 in.,                 !- Name
  Smooth,                                 !- Roughness
  0.016002,                               !- Thickness {m}
  0.158656446866265,                      !- Conductivity {W/m-K}
  640.738534958406,                       !- Density {kg/m3}
  1130.436,                               !- Specific Heat {J/kg-K}
  0.9,                                    !- Thermal Absorptance
  0.7,                                    !- Solar Absorptance
  0.8;                                    !- Visible Absorptance

OS:Material,
  {4475027b-4910-4766-91ba-a4b4f7223b34}, !- Handle
  Stucco - 7/8 in.,                       !- Name
  MediumRough,                            !- Roughness
  0.022352,                               !- Thickness {m}
  0.700947539880412,                      !- Conductivity {W/m-K}
  1855.09824333832,                       !- Density {kg/m3}
  837.36,                                 !- Specific Heat {J/kg-K}
  0.9,                                    !- Thermal Absorptance
  0.7,                                    !- Solar Absorptance
  0.8;                                    !- Visible Absorptance

OS:Material,
  {6b3f71c1-b751-4788-8aac-8e1decdd719f}, !- Handle
  Carpet - 3/4 in.,                       !- Name
  Smooth,                                 !- Roughness
  0.01905,                                !- Thickness {m}
  0.0455183217255675,                     !- Conductivity {W/m-K}
  288.332340731283,                       !- Density {kg/m3}
  1381.644,                               !- Specific Heat {J/kg-K}
  0.9,                                    !- Thermal Absorptance
  0.7,                                    !- Solar Absorptance
  0.8;                                    !- Visible Absorptance

OS:Material,
  {813b6b6c-3b79-4657-b2ac-8022110b3d7f}, !- Handle
  Plywood - 5/8 in.,                      !- Name
  Smooth,                                 !- Roughness
  0.016002,                               !- Thickness {m}
  0.115440002246971,                      !- Conductivity {W/m-K}
  480.553901218804,                       !- Density {kg/m3}
  1884.06;                                !- Specific Heat {J/kg-K}

OS:Material,
  {c4a85c4d-fcd7-4b73-b0f1-9c1b6c90c3fa}, !- Handle
  Compliance Insulation R1.54,            !- Name
  Smooth,                                 !- Roughness
  0.0062429136,                           !- Thickness {m}
  0.0230187710627394,                     !- Conductivity {W/m-K}
  16.0184633739601,                       !- Density {kg/m3}
  1130.436;                               !- Specific Heat {J/kg-K}

OS:Material,
  {a83ab457-84cd-46c6-b723-df40f936d6d7}, !- Handle
  Compliance Insulation R1.35,            !- Name
  Smooth,                                 !- Roughness
  0.005472684,                            !- Thickness {m}
  0.0230187710627394,                     !- Conductivity {W/m-K}
  16.0184633739601,                       !- Density {kg/m3}
  1130.436;                               !- Specific Heat {J/kg-K}

OS:Material:NoMass,
  {37dae237-ae14-4d76-b61b-b00b197d90ec}, !- Handle
  WoodFrameWall16inOC R11.25,             !- Name
  Smooth,                                 !- Roughness
  1.26865197459958;                       !- Thermal Resistance {m2-K/W}

OS:Material,
  {123ebf17-2e9c-40a5-8f59-73ddab6d1d4d}, !- Handle
  Concrete - 140 lb/ft3 - 10 in.,         !- Name
  Smooth,                                 !- Roughness
  0.254,                                  !- Thickness {m}
  1.95140333633374,                       !- Conductivity {W/m-K}
  2239.06081041215,                       !- Density {kg/m3}
  921.096,                                !- Specific Heat {J/kg-K}
  0.9,                                    !- Thermal Absorptance
  0.7,                                    !- Solar Absorptance
  0.8;                                    !- Visible Absorptance

OS:Material:NoMass,
  {1205b60a-08b9-4004-9f25-4197febad7ca}, !- Handle
  WoodRoof16OCCavInsR38,                  !- Name
  Smooth,                                 !- Roughness
  4.68171312301043,                       !- Thermal Resistance {m2-K/W}
  0.9,                                    !- Thermal Absorptance
  0.7,                                    !- Solar Absorptance
  0.8;                                    !- Visible Absorptance

OS:Material,
  {431cbb70-02d4-45c6-88f3-ba805e8148aa}, !- Handle
  Building Paper - 1/16 in.,              !- Name
  Smooth,                                 !- Roughness
  0.001524,                               !- Thickness {m}
  0.28851346888411,                       !- Conductivity {W/m-K}
  96.1107802437608,                       !- Density {kg/m3}
  1256.04;                                !- Specific Heat {J/kg-K}

OS:Material,
  {2eeabd9b-d65f-49c0-b5e9-ad309449a70e}, !- Handle
  Fiberboard sheathing - 1/2 in.,         !- Name
  Smooth,                                 !- Roughness
  0.0127,                                 !- Thickness {m}
  0.0706139743879526,                     !- Conductivity {W/m-K}
  399.820845814045,                       !- Density {kg/m3}
  1297.908;                               !- Specific Heat {J/kg-K}

OS:Material,
  {bc87e82f-4553-46e7-8e29-bff52c10574e}, !- Handle
  Roofing felt - 1/8 in.,                 !- Name
  MediumRough,                            !- Roughness
  0.001524,                               !- Thickness {m}
  1.19714916872909,                       !- Conductivity {W/m-K}
  230.665872585026,                       !- Density {kg/m3}
  1256.04,                                !- Specific Heat {J/kg-K}
  0.85,                                   !- Thermal Absorptance
  0.92,                                   !- Solar Absorptance
  0.85;                                   !- Visible Absorptance

OS:Material:NoMass,
  {34cbdadb-6cc4-44a1-9699-bd3bc0a77c80}, !- Handle
  WoodFloor16inOCCavInsR0,                !- Name
  Smooth,                                 !- Roughness
  0.162021368987722;                      !- Thermal Resistance {m2-K/W}

OS:Material,
  {871566af-5efc-4bcb-9fcd-071648b4fac5}, !- Handle
  Stone - 1 in.,                          !- Name
  MediumRough,                            !- Roughness
  0.0254,                                 !- Thickness {m}
  1.80342552235899,                       !- Conductivity {W/m-K}
  2239.06081041215,                       !- Density {kg/m3}
  921.096,                                !- Specific Heat {J/kg-K}
  0.85,                                   !- Thermal Absorptance
  0.92,                                   !- Solar Absorptance
  0.85;                                   !- Visible Absorptance

OS:Material:NoMass,
  {b0f42bd7-7fb7-430e-9945-fceb46e72637}, !- Handle
  WoodFraming16inOC,                      !- Name
  Smooth,                                 !- Roughness
  0.14969365612996;                       !- Thermal Resistance {m2-K/W}

OS:Material,
  {69a15764-6b55-49db-8931-71d40ccf632f}, !- Handle
  Concrete - 140 lb/ft3 - 8 in.,          !- Name
  Smooth,                                 !- Roughness
  0.2032,                                 !- Thickness {m}
  1.95140333633374,                       !- Conductivity {W/m-K}
  2239.06081041215,                       !- Density {kg/m3}
  921.096;                                !- Specific Heat {J/kg-K}

OS:Material,
  {38ebd4a4-a69d-4951-8437-de3eb06f4d1e}, !- Handle
  Concrete - 140 lb/ft3 - 4 in.,          !- Name
  Smooth,                                 !- Roughness
  0.1016,                                 !- Thickness {m}
  1.95140333633374,                       !- Conductivity {W/m-K}
  2239.06081041215,                       !- Density {kg/m3}
  921.096;                                !- Specific Heat {J/kg-K}

OS:Material,
  {95f3e79a-63f8-4d5d-a7e2-7fdab28f2894}, !- Handle
  Compliance Insulation R0.01,            !- Name
  Smooth,                                 !- Roughness
  4.05384e-005,                           !- Thickness {m}
  0.0230187710627394,                     !- Conductivity {W/m-K}
  16.0184633739601,                       !- Density {kg/m3}
  1130.436;                               !- Specific Heat {J/kg-K}

OS:Material,
  {5cf425a3-6de3-4ae9-b4ab-1c77731efd83}, !- Handle
  Compliance Insulation R20.00,           !- Name
  Smooth,                                 !- Roughness
  0.0810768,                              !- Thickness {m}
  0.0230187710627394,                     !- Conductivity {W/m-K}
  16.0184633739601,                       !- Density {kg/m3}
  1130.436;                               !- Specific Heat {J/kg-K}

OS:Material,
  {b58cac7e-65a5-4376-bfc6-814d96b218db}, !- Handle
  Compliance Insulation R0.20,            !- Name
  Smooth,                                 !- Roughness
  0.000810768,                            !- Thickness {m}
  0.0230187710627394,                     !- Conductivity {W/m-K}
  16.0184633739601,                       !- Density {kg/m3}
  1130.436;                               !- Specific Heat {J/kg-K}

OS:Material,
  {b3ca3e41-e190-40b3-ade9-d6ff11179ffd}, !- Handle
  Compliance Insulation R5.00,            !- Name
  Smooth,                                 !- Roughness
  0.0202692,                              !- Thickness {m}
  0.0230187710627394,                     !- Conductivity {W/m-K}
  16.0184633739601,                       !- Density {kg/m3}
  1130.436;                               !- Specific Heat {J/kg-K}

OS:Material,
  {f0f04f89-3cc7-4eb1-a0fc-b462ebbe5698}, !- Handle
  Compliance Insulation R0.10,            !- Name
  Smooth,                                 !- Roughness
  0.000405384,                            !- Thickness {m}
  0.0230187710627394,                     !- Conductivity {W/m-K}
  16.0184633739601,                       !- Density {kg/m3}
  1130.436;                               !- Specific Heat {J/kg-K}

OS:Material:NoMass,
  {08ad1319-8c44-46d4-9ea0-ada1a9ac5d4b}, !- Handle
  WoodFrameWall16inOCCavInsR14,           !- Name
  Smooth,                                 !- Roughness
  1.77022434433781;                       !- Thermal Resistance {m2-K/W}

OS:Material,
  {d075cbf6-3f70-4e34-aa0f-51580ed7ad25}, !- Handle
  Compliance Insulation R10.00,           !- Name
  Smooth,                                 !- Roughness
  0.0405384,                              !- Thickness {m}
  0.0230187710627394,                     !- Conductivity {W/m-K}
  16.0184633739601,                       !- Density {kg/m3}
  1130.436;                               !- Specific Heat {J/kg-K}

OS:Construction,
  {22906c46-7f60-4b76-99e3-e02fd0f78439}, !- Handle
  ResWoodWallU059,                        !- Name
  ,                                       !- Surface Rendering Name