
OS:Version,
  {c3be83c2-c305-4f55-8d3d-46f5b5507cd6}, !- Handle
  2.7.2;                                  !- Version Identifier

OS:SimulationControl,
  {0c1df9b9-e3dc-42d6-8f13-f3cf590db27d}, !- Handle
  ,                                       !- Do Zone Sizing Calculation
  ,                                       !- Do System Sizing Calculation
  ,                                       !- Do Plant Sizing Calculation
  Yes,                                    !- Run Simulation for Sizing Periods
  No,                                     !- Run Simulation for Weather File Run Periods
  ,                                       !- Loads Convergence Tolerance Value
  ,                                       !- Temperature Convergence Tolerance Value {deltaC}
  FullExterior,                           !- Solar Distribution
  50;                                     !- Maximum Number of Warmup Days

OS:Site,
  {658861ed-bf5e-4816-b357-a48ba10e0ae6}, !- Handle
  CA_OAKLAND-METRO-AP_USA Design_Conditions, !- Name
  37.72,                                  !- Latitude {deg}
  -122.22,                                !- Longitude {deg}
  -8,                                     !- Time Zone {hr}
  25.908,                                 !- Elevation {m}
  ;                                       !- Terrain

OS:SizingPeriod:DesignDay,
  {08368f3f-de9c-49ea-b184-90d248df2936}, !- Handle
  CA_OAKLAND-METRO-AP Ann Htg 99.6% Condns DB, !- Name
  2.5,                                    !- Maximum Dry-Bulb Temperature {C}
  0,                                      !- Daily Dry-Bulb Temperature Range {deltaC}
  2.5,                                    !- Humidity Indicating Conditions at Maximum Dry-Bulb
  101013,                                 !- Barometric Pressure {Pa}
  1.7,                                    !- Wind Speed {m/s}
  50,                                     !- Wind Direction {deg}
  0,                                      !- Sky Clearness
  0,                                      !- Rain Indicator
  0,                                      !- Snow Indicator
  21,                                     !- Day of Month
  1,                                      !- Month
  WinterDesignDay,                        !- Day Type
  0,                                      !- Daylight Saving Time Indicator
  Wetbulb,                                !- Humidity Indicating Type
  ,                                       !- Humidity Indicating Day Schedule Name
  DefaultMultipliers,                     !- Dry-Bulb Temperature Range Modifier Type
  ,                                       !- Dry-Bulb Temperature Range Modifier Schedule Name
  ASHRAEClearSky;                         !- Solar Model Indicator

OS:SizingPeriod:DesignDay,
  {4ea10248-ab22-4e02-9aaa-8e531607c264}, !- Handle
  CA_OAKLAND-METRO-AP Ann Clg .4% Condns DB=>MWB, !- Name
  28.6,                                   !- Maximum Dry-Bulb Temperature {C}
  8.9,                                    !- Daily Dry-Bulb Temperature Range {deltaC}
  17.9,                                   !- Humidity Indicating Conditions at Maximum Dry-Bulb
  101013,                                 !- Barometric Pressure {Pa}
  4.9,                                    !- Wind Speed {m/s}
  310,                                    !- Wind Direction {deg}
  0,                                      !- Sky Clearness
  0,                                      !- Rain Indicator
  0,                                      !- Snow Indicator
  21,                                     !- Day of Month
  9,                                      !- Month
  SummerDesignDay,                        !- Day Type
  0,                                      !- Daylight Saving Time Indicator
  Wetbulb,                                !- Humidity Indicating Type
  ,                                       !- Humidity Indicating Day Schedule Name
  DefaultMultipliers,                     !- Dry-Bulb Temperature Range Modifier Type
  ,                                       !- Dry-Bulb Temperature Range Modifier Schedule Name
  ASHRAETau,                              !- Solar Model Indicator
  ,                                       !- Beam Solar Day Schedule Name
  ,                                       !- Diffuse Solar Day Schedule Name
  0.348,                                  !- ASHRAE Taub {dimensionless}
  2.454;                                  !- ASHRAE Taud {dimensionless}

OS:SizingPeriod:DesignDay,
  {d4238826-f4c1-491d-a7d6-75ab1967250c}, !- Handle
  CA_OAKLAND-METRO-AP Ann Clg .4% Condns WB=>MDB, !- Name
  25.6,                                   !- Maximum Dry-Bulb Temperature {C}
  8.9,                                    !- Daily Dry-Bulb Temperature Range {deltaC}
  19.2,                                   !- Humidity Indicating Conditions at Maximum Dry-Bulb
  101013,                                 !- Barometric Pressure {Pa}
  4.9,                                    !- Wind Speed {m/s}
  310,                                    !- Wind Direction {deg}
  0,                                      !- Sky Clearness
  0,                                      !- Rain Indicator
  0,                                      !- Snow Indicator
  21,                                     !- Day of Month
  9,                                      !- Month
  SummerDesignDay,                        !- Day Type
  0,                                      !- Daylight Saving Time Indicator
  Wetbulb,                                !- Humidity Indicating Type
  ,                                       !- Humidity Indicating Day Schedule Name
  DefaultMultipliers,                     !- Dry-Bulb Temperature Range Modifier Type
  ,                                       !- Dry-Bulb Temperature Range Modifier Schedule Name
  ASHRAETau,                              !- Solar Model Indicator
  ,                                       !- Beam Solar Day Schedule Name
  ,                                       !- Diffuse Solar Day Schedule Name
  0.348,                                  !- ASHRAE Taub {dimensionless}
  2.454;                                  !- ASHRAE Taud {dimensionless}

OS:SizingPeriod:DesignDay,
  {7eb11e10-3f59-4c82-81fc-defc150ca0a7}, !- Handle
  CA_OAKLAND-METRO-AP Ann Clg .4% Condns DP=>MDB, !- Name
  20.7,                                   !- Maximum Dry-Bulb Temperature {C}
  8.9,                                    !- Daily Dry-Bulb Temperature Range {deltaC}
  17,                                     !- Humidity Indicating Conditions at Maximum Dry-Bulb
  101013,                                 !- Barometric Pressure {Pa}
  4.9,                                    !- Wind Speed {m/s}
  310,                                    !- Wind Direction {deg}
  0,                                      !- Sky Clearness
  0,                                      !- Rain Indicator
  0,                                      !- Snow Indicator
  21,                                     !- Day of Month
  9,                                      !- Month
  SummerDesignDay,                        !- Day Type
  0,                                      !- Daylight Saving Time Indicator
  Dewpoint,                               !- Humidity Indicating Type
  ,                                       !- Humidity Indicating Day Schedule Name
  DefaultMultipliers,                     !- Dry-Bulb Temperature Range Modifier Type
  ,                                       !- Dry-Bulb Temperature Range Modifier Schedule Name
  ASHRAETau,                              !- Solar Model Indicator
  ,                                       !- Beam Solar Day Schedule Name
  ,                                       !- Diffuse Solar Day Schedule Name
  0.348,                                  !- ASHRAE Taub {dimensionless}
  2.454;                                  !- ASHRAE Taud {dimensionless}

OS:SizingPeriod:DesignDay,
  {3dac8991-5d28-4368-b78e-1e12fa80d468}, !- Handle
  CA_OAKLAND-METRO-AP June .4% Condns DB=>MCWB, !- Name
  30.9,                                   !- Maximum Dry-Bulb Temperature {C}
  8.1,                                    !- Daily Dry-Bulb Temperature Range {deltaC}
  18.4,                                   !- Humidity Indicating Conditions at Maximum Dry-Bulb
  101013,                                 !- Barometric Pressure {Pa}
  4.6,                                    !- Wind Speed {m/s}
  310,                                    !- Wind Direction {deg}
  0,                                      !- Sky Clearness
  0,                                      !- Rain Indicator
  0,                                      !- Snow Indicator
  21,                                     !- Day of Month
  6,                                      !- Month
  SummerDesignDay,                        !- Day Type
  0,                                      !- Daylight Saving Time Indicator
  Wetbulb,                                !- Humidity Indicating Type
  ,                                       !- Humidity Indicating Day Schedule Name
  DefaultMultipliers,                     !- Dry-Bulb Temperature Range Modifier Type
  ,                                       !- Dry-Bulb Temperature Range Modifier Schedule Name
  ASHRAETau,                              !- Solar Model Indicator
  ,                                       !- Beam Solar Day Schedule Name
  ,                                       !- Diffuse Solar Day Schedule Name
  0.36,                                   !- ASHRAE Taub {dimensionless}
  2.435;                                  !- ASHRAE Taud {dimensionless}

OS:SizingPeriod:DesignDay,
  {91db8dbe-febc-4a41-9b33-a0ff887fb666}, !- Handle
  CA_OAKLAND-METRO-AP July .4% Condns DB=>MCWB, !- Name
  29.1,                                   !- Maximum Dry-Bulb Temperature {C}
  7.5,                                    !- Daily Dry-Bulb Temperature Range {deltaC}
  19.5,                                   !- Humidity Indicating Conditions at Maximum Dry-Bulb
  101013,                                 !- Barometric Pressure {Pa}
  4.5,                                    !- Wind Speed {m/s}
  310,                                    !- Wind Direction {deg}
  0,                                      !- Sky Clearness
  0,                                      !- Rain Indicator
  0,                                      !- Snow Indicator
  21,                                     !- Day of Month
  7,                                      !- Month
  SummerDesignDay,                        !- Day Type
  0,                                      !- Daylight Saving Time Indicator
  Wetbulb,                                !- Humidity Indicating Type
  ,                                       !- Humidity Indicating Day Schedule Name
  DefaultMultipliers,                     !- Dry-Bulb Temperature Range Modifier Type
  ,                                       !- Dry-Bulb Temperature Range Modifier Schedule Name
  ASHRAETau,                              !- Solar Model Indicator
  ,                                       !- Beam Solar Day Schedule Name
  ,                                       !- Diffuse Solar Day Schedule Name
  0.368,                                  !- ASHRAE Taub {dimensionless}
  2.414;                                  !- ASHRAE Taud {dimensionless}

OS:SizingPeriod:DesignDay,
  {051ed31d-b145-4dab-a0e8-a27d4abe96dd}, !- Handle
  CA_OAKLAND-METRO-AP August .4% Condns DB=>MCWB, !- Name
  30,                                     !- Maximum Dry-Bulb Temperature {C}
  7.7,                                    !- Daily Dry-Bulb Temperature Range {deltaC}
  19,                                     !- Humidity Indicating Conditions at Maximum Dry-Bulb
  101013,                                 !- Barometric Pressure {Pa}
  4.2,                                    !- Wind Speed {m/s}
  310,                                    !- Wind Direction {deg}
  0,                                      !- Sky Clearness
  0,                                      !- Rain Indicator
  0,                                      !- Snow Indicator
  21,                                     !- Day of Month
  8,                                      !- Month
  SummerDesignDay,                        !- Day Type
  0,                                      !- Daylight Saving Time Indicator
  Wetbulb,                                !- Humidity Indicating Type
  ,                                       !- Humidity Indicating Day Schedule Name
  DefaultMultipliers,                     !- Dry-Bulb Temperature Range Modifier Type
  ,                                       !- Dry-Bulb Temperature Range Modifier Schedule Name
  ASHRAETau,                              !- Solar Model Indicator
  ,                                       !- Beam Solar Day Schedule Name
  ,                                       !- Diffuse Solar Day Schedule Name
  0.349,                                  !- ASHRAE Taub {dimensionless}
  2.467;                                  !- ASHRAE Taud {dimensionless}

OS:SizingPeriod:DesignDay,
  {a5391172-5847-48ea-8c6b-2055e3d611bb}, !- Handle
  CA_OAKLAND-METRO-AP September .4% Condns DB=>MCWB, !- Name
  31.2,                                   !- Maximum Dry-Bulb Temperature {C}
  8.9,                                    !- Daily Dry-Bulb Temperature Range {deltaC}
  18.7,                                   !- Humidity Indicating Conditions at Maximum Dry-Bulb
  101013,                                 !- Barometric Pressure {Pa}
  3.8,                                    !- Wind Speed {m/s}
  310,                                    !- Wind Direction {deg}
  0,                                      !- Sky Clearness
  0,                                      !- Rain Indicator
  0,                                      !- Snow Indicator
  21,                                     !- Day of Month
  9,                                      !- Month
  SummerDesignDay,                        !- Day Type
  0,                                      !- Daylight Saving Time Indicator
  Wetbulb,                                !- Humidity Indicating Type
  ,                                       !- Humidity Indicating Day Schedule Name
  DefaultMultipliers,                     !- Dry-Bulb Temperature Range Modifier Type
  ,                                       !- Dry-Bulb Temperature Range Modifier Schedule Name
  ASHRAETau,                              !- Solar Model Indicator
  ,                                       !- Beam Solar Day Schedule Name
  ,                                       !- Diffuse Solar Day Schedule Name
  0.348,                                  !- ASHRAE Taub {dimensionless}
  2.454;                                  !- ASHRAE Taud {dimensionless}

OS:SizingPeriod:DesignDay,
  {bc47c645-d46b-44ac-9866-b6218806e156}, !- Handle
  CA_OAKLAND-METRO-AP October .4% Condns DB=>MCWB, !- Name
  29.8,                                   !- Maximum Dry-Bulb Temperature {C}
  9.3,                                    !- Daily Dry-Bulb Temperature Range {deltaC}
  16.8,                                   !- Humidity Indicating Conditions at Maximum Dry-Bulb
  101013,                                 !- Barometric Pressure {Pa}
  3.2,                                    !- Wind Speed {m/s}
  310,                                    !- Wind Direction {deg}
  0,                                      !- Sky Clearness
  0,                                      !- Rain Indicator
  0,                                      !- Snow Indicator
  21,                                     !- Day of Month
  10,                                     !- Month
  SummerDesignDay,                        !- Day Type
  0,                                      !- Daylight Saving Time Indicator
  Wetbulb,                                !- Humidity Indicating Type
  ,                                       !- Humidity Indicating Day Schedule Name
  DefaultMultipliers,                     !- Dry-Bulb Temperature Range Modifier Type
  ,                                       !- Dry-Bulb Temperature Range Modifier Schedule Name
  ASHRAETau,                              !- Solar Model Indicator
  ,                                       !- Beam Solar Day Schedule Name
  ,                                       !- Diffuse Solar Day Schedule Name
  0.339,                                  !- ASHRAE Taub {dimensionless}
  2.522;                                  !- ASHRAE Taud {dimensionless}

OS:SizingPeriod:DesignDay,
  {49b05bd8-8960-4107-835c-a4f415850cc9}, !- Handle
  CA_OAKLAND-METRO-AP November .4% Condns DB=>MCWB, !- Name
  23.4,                                   !- Maximum Dry-Bulb Temperature {C}
  8.3,                                    !- Daily Dry-Bulb Temperature Range {deltaC}
  15,                                     !- Humidity Indicating Conditions at Maximum Dry-Bulb
  101013,                                 !- Barometric Pressure {Pa}
  2.9,                                    !- Wind Speed {m/s}
  310,                                    !- Wind Direction {deg}
  0,                                      !- Sky Clearness
  0,                                      !- Rain Indicator
  0,                                      !- Snow Indicator
  21,                                     !- Day of Month
  11,                                     !- Month
  SummerDesignDay,                        !- Day Type
  0,                                      !- Daylight Saving Time Indicator
  Wetbulb,                                !- Humidity Indicating Type
  ,                                       !- Humidity Indicating Day Schedule Name
  DefaultMultipliers,                     !- Dry-Bulb Temperature Range Modifier Type
  ,                                       !- Dry-Bulb Temperature Range Modifier Schedule Name
  ASHRAETau,                              !- Solar Model Indicator
  ,                                       !- Beam Solar Day Schedule Name
  ,                                       !- Diffuse Solar Day Schedule Name
  0.324,                                  !- ASHRAE Taub {dimensionless}
  2.549;                                  !- ASHRAE Taud {dimensionless}

OS:WeatherFile,
  {88d1c370-adcf-4a5f-b9a5-a9b0559b24d9}, !- Handle
  CA_OAKLAND-METRO-AP,                    !- City
  -,                                      !- State Province Region
  USA,                                    !- Country
  Custom-724930,                          !- Data Source
  724930,                                 !- WMO Number
  37.72,                                  !- Latitude {deg}
  -122.22,                                !- Longitude {deg}
  -8,                                     !- Time Zone {hr}
  26,                                     !- Elevation {m}
  file:///C:/Users/mnakajima/Documents/CBECC-Com 2022 Data/EPW/CTZ03S22A.epw, !- Url
  A81E01AF;                               !- Checksum

OS:Sizing:Parameters,
  {d1201b89-96b4-4192-b69f-9f01ed07beef}, !- Handle
  1,                                      !- Heating Sizing Factor
  1;                                      !- Cooling Sizing Factor

OS:Material,
  {22718e7b-39c2-455c-85a7-15598cda86ae}, !- Handle
  Gypsum Board - 1/2 in.,                 !- Name
  Smooth,                                 !- Roughness
  0.0127,                                 !- Thickness {m}
  0.158656446866265,                      !- Conductivity {W/m-K}
  640.738534958406,                       !- Density {kg/m3}
  1130.436,                               !- Specific Heat {J/kg-K}
  0.9,                                    !- Thermal Absorptance
  0.7,                                    !- Solar Absorptance
  0.8;                                    !- Visible Absorptance

OS:Material,
  {e1cd0993-1a16-4858-8fbd-cfd8f9e9ccdd}, !- Handle
  Gypsum Board - 5/8 in.,                 !- Name
  MediumRough,                            !- Roughness
  0.016002,                               !- Thickness {m}
  0.158656446866265,                      !- Conductivity {W/m-K}
  640.738534958406,                       !- Density {kg/m3}
  1130.436,                               !- Specific Heat {J/kg-K}
  0.9,                                    !- Thermal Absorptance
  0.7,                                    !- Solar Absorptance
  0.8;                                    !- Visible Absorptance

OS:Material,
  {e8de2346-fdbe-4df5-84d0-c19e9e8ae6fa}, !- Handle
  Stucco - 7/8 in.,                       !- Name
  MediumRough,                            !- Roughness
  0.022352,                               !- Thickness {m}
  0.700947539880412,                      !- Conductivity {W/m-K}
  1855.09824333832,                       !- Density {kg/m3}
  837.36,                                 !- Specific Heat {J/kg-K}
  0.9,                                    !- Thermal Absorptance
  0.7,                                    !- Solar Absorptance
  0.8;                                    !- Visible Absorptance

OS:Material,
  {14c74726-c4eb-422f-9261-fbe363766a7a}, !- Handle
  Carpet - 3/4 in.,                       !- Name
  Smooth,                                 !- Roughness
  0.01905,                                !- Thickness {m}
  0.0455183217255675,                     !- Conductivity {W/m-K}
  288.332340731283,                       !- Density {kg/m3}
  1381.644,                               !- Specific Heat {J/kg-K}
  0.9,                                    !- Thermal Absorptance
  0.7,                                    !- Solar Absorptance
  0.8;                                    !- Visible Absorptance

OS:Material,
  {9efa9523-cd72-42b2-9fb9-82affb333c2d}, !- Handle
  Plywood - 5/8 in.,                      !- Name
  Smooth,                                 !- Roughness
  0.016002,                               !- Thickness {m}
  0.115440002246971,                      !- Conductivity {W/m-K}
  480.553901218804,                       !- Density {kg/m3}
  1884.06;                                !- Specific Heat {J/kg-K}

OS:Material,
  {c1c333d0-1e09-4caa-99ca-4d9d53ca519a}, !- Handle
  Concrete - 140 lb/ft3 - 4 in.,          !- Name
  Smooth,                                 !- Roughness
  0.1016,                                 !- Thickness {m}
  1.95140333633374,                       !- Conductivity {W/m-K}
  2239.06081041215,                       !- Density {kg/m3}
  921.096;                                !- Specific Heat {J/kg-K}

OS:Material,
  {68201550-35b5-4c11-ba96-2a8884bc43b9}, !- Handle
  Compliance Insulation R0.20,            !- Name
  Smooth,                                 !- Roughness
  0.000810768,                            !- Thickness {m}
  0.0230187710627394,                     !- Conductivity {W/m-K}
  16.0184633739601,                       !- Density {kg/m3}
  1130.436;                               !- Specific Heat {J/kg-K}

OS:Material,
  {a802fd3b-15ac-404a-926d-94872c1e2438}, !- Handle
  Concrete - Solid Grout - 115 lb/ft3 - 8 in., !- Name
  Smooth,                                 !- Roughness
  0.2032,                                 !- Thickness {m}
  1.31570449337553,                       !- Conductivity {W/m-K}
  1858.14175137938,                       !- Density {kg/m3}
  837.36;                                 !- Specific Heat {J/kg-K}

OS:Material,
  {4f026e9c-9805-45ae-9df0-cab45821a66f}, !- Handle
  Compliance Insulation R10.06,           !- Name
  Smooth,                                 !- Roughness
  0.040781732,                            !- Thickness {m}
  0.0230187710627394,                     !- Conductivity {W/m-K}
  16.0184633739601,                       !- Density {kg/m3}
  1130.436;                               !- Specific Heat {J/kg-K}

OS:Material,
  {82a1b492-ac1e-4137-92b2-9e8dc8653ade}, !- Handle
  Air - Metal Wall Framing - 16 or 24 in. OC, !- Name
  Smooth,                                 !- Roughness
  0.1397,                                 !- Thickness {m}
  1.22016793979183,                       !- Conductivity {W/m-K}
  1.28147706991681,                       !- Density {kg/m3}
  1004.832;                               !- Specific Heat {J/kg-K}

OS:Material,
  {70dd599d-2126-48c5-9106-88051fbb3db9}, !- Handle
  Compliance Insulation R2.00,            !- Name
  Smooth,                                 !- Roughness
  0.00810768,                             !- Thickness {m}
  0.0230187710627394,                     !- Conductivity {W/m-K}
  16.0184633739601,                       !- Density {kg/m3}
  1130.436;                               !- Specific Heat {J/kg-K}

OS:Material,
  {ceb4319c-4f83-48f3-88c4-ce7ababffcbe}, !- Handle
  Compliance Insulation R0.10,            !- Name
  Smooth,                                 !- Roughness
  0.000405384,                            !- Thickness {m}
  0.0230187710627394,                     !- Conductivity {W/m-K}
  16.0184633739601,                       !- Density {kg/m3}
  1130.436;                               !- Specific Heat {J/kg-K}

OS:Material,
  {c4ff92bc-6273-4e93-9810-53ed6763042c}, !- Handle
  Metal Standing Seam - 1/16 in.,         !- Name
  MediumRough,                            !- Roughness
  0.0015875,                              !- Thickness {m}
  2.21534037295537,                       !- Conductivity {W/m-K}
  7820.53418843482,                       !- Density {kg/m3}
  502.416,                                !- Specific Heat {J/kg-K}
  0.85,                                   !- Thermal Absorptance
  0.37,                                   !- Solar Absorptance
  0.85;                                   !- Visible Absorptance

OS:Material,
  {c34672d7-1f5c-4290-b005-dae823431175}, !- Handle
  Compliance Insulation R28.63,           !- Name
  Smooth,                                 !- Roughness
  0.11606149,                             !- Thickness {m}
  0.0230187710627394,                     !- Conductivity {W/m-K}
  16.0184633739601,                       !- Density {kg/m3}
  1130.436,                               !- Specific Heat {J/kg-K}
  0.9,                                    !- Thermal Absorptance
  0.7,                                    !- Solar Absorptance
  0.8;                                    !- Visible Absorptance

OS:Material,
  {4de0c70b-a654-4acd-953b-c752cfd7aaf2}, !- Handle
  Compliance Insulation R9.83,            !- Name
  MediumRough,                            !- Roughness
  0.03986911,                             !- Thickness {m}
  0.0230187710627394,                     !- Conductivity {W/m-K}
  16.0184633739601,                       !- Density {kg/m3}
  1130.436,                               !- Specific Heat {J/kg-K}
  0.9,                                    !- Thermal Absorptance
  0.7,                                    !- Solar Absorptance
  0.8;                                    !- Visible Absorptance

OS:Material,
  {e2fd6074-e238-400b-b51e-776f418e98c9}, !- Handle
  Metal Deck - 1/16 in.,                  !- Name
  MediumRough,                            !- Roughness
  0.0015875,                              !- Thickness {m}
  45.3452482589303,                       !- Conductivity {W/m-K}
  7820.53418843482,                       !- Density {kg/m3}
  502.416,                                !- Specific Heat {J/kg-K}
  0.9,                                    !- Thermal Absorptance
  0.7,                                    !- Solar Absorptance
  0.8;                                    !- Visible Absorptance

OS:Construction,
  {4ace530c-1ce2-472b-b309-92d5299cb3d5}, !- Handle
  MetalFrameWallU082,                     !- Name
  ,                                       !- Surface Rendering Name
  {e8de2346-fdbe-4df5-84d0-c19e9e8ae6fa}, !- Layer 1
  {4f026e9c-9805-45ae-9df0-cab45821a66f}, !- Layer 2
  {82a1b492-ac1e-4137-92b2-9e8dc8653ade}, !- Layer 3
  {22718e7b-39c2-455c-85a7-15598cda86ae}; !- Layer 4

OS:Construction,
  {9896acde-6e42-448f-ae4a-7f5322257a7e}, !- Handle
  MetalFrameWallU069,                     !- Name
  ,                                       !- Surface Rendering Name
  {fea088b1-531d-4397-b10e-2717e7a2d20a}, !- Layer 1
  {e1b1aec1-fa72-4377-8c28-8bbd4f2f2ec8}, !- Layer 2
  {70dd599d-2126-48c5-9106-88051fbb3db9}, !- Layer 3
  {68201550-35b5-4c11-ba96-2a8884bc43b9}, !- Layer 4
  {ceb4319c-4f83-48f3-88c4-ce7ababffcbe}, !- Layer 5
  {942dbb5f-3ce5-4783-9e93-a04ddbc3eef4}, !- Layer 6
  {bf40c403-bc4f-4948-aab7-abf35fd15be4}; !- Layer 7

OS:Material,
  {fea088b1-531d-4397-b10e-2717e7a2d20a}, !- Handle
  Stucco - 7/8 in. 1,                     !- Name
  MediumRough,                            !- Roughness
  0.022352,                               !- Thickness {m}
  0.700947539880412,                      !- Conductivity {W/m-K}
  1855.09824333832,                       !- Density {kg/m3}
  837.36,                                 !- Specific Heat {J/kg-K}
  0.9,                                    !- Thermal Absorptance
  0.7,                                    !- Solar Absorptance
  0.8;                                    !- Visible Absorptance

OS:Material,
  {e1b1aec1-fa72-4377-8c28-8bbd4f2f2ec8}, !- Handle
  Compliance Insulation R10.06 1,         !- Name
  Smooth,                                 !- Roughness
  0.040781732,                            !- Thickness {m}
  0.0230187710627394,                     !- Conductivity {W/m-K}
  16.0184633739601,                       !- Density {kg/m3}
  1130.436;                               !- Specific Heat {J/kg-K}

OS:Material,
  {942dbb5f-3ce5-4783-9e93-a04ddbc3eef4}, !- Handle
  Air - Metal Wall Framing - 16 or 24 in. OC 1, !- Name
  Smooth,                                 !- Roughness
  0.1397,                                 !- Thickness {m}
  1.22016793979183,                       !- Conductivity {W/m-K}
  1.28147706991681,                       !- Density {kg/m3}
  1004.832;                               !- Specific Heat {J/kg-K}

OS:Material,
  {bf40c403-bc4f-4948-aab7-abf35fd15be4}, !- Handle
  Gypsum Board - 1/2 in. 1,               !- Name