
OS:Version,
  {befdca12-13f6-49e0-9422-920c632ef567}, !- Handle
  2.7.2;                                  !- Version Identifier

OS:SimulationControl,
  {be09e9f3-a40a-409f-a7ad-05e0e4ca17c5}, !- Handle
  ,                                       !- Do Zone Sizing Calculation
  ,                                       !- Do System Sizing Calculation
  ,                                       !- Do Plant Sizing Calculation
  No,                                     !- Run Simulation for Sizing Periods
  Yes,                                    !- Run Simulation for Weather File Run Periods
  ,                                       !- Loads Convergence Tolerance Value
  ,                                       !- Temperature Convergence Tolerance Value {deltaC}
  FullExterior,                           !- Solar Distribution
  50;                                     !- Maximum Number of Warmup Days

OS:YearDescription,
  {22998026-5b6b-4383-a6c0-b4a3f8be15a1}, !- Handle
  2009,                                   !- Calendar Year
  ,                                       !- Day of Week for Start Day
  ;                                       !- Is Leap Year

OS:RunPeriod,
  {90d62a7e-da8a-4384-a40b-451b1d33308d}, !- Handle
  CTZ09S22A,                              !- Name
  1,                                      !- Begin Month
  1,                                      !- Begin Day of Month
  12,                                     !- End Month
  31,                                     !- End Day of Month
  No,                                     !- Use Weather File Holidays and Special Days
  No,                                     !- Use Weather File Daylight Saving Period
  Yes,                                    !- Apply Weekend Holiday Rule
  ,                                       !- Use Weather File Rain Indicators
  ,                                       !- Use Weather File Snow Indicators
  ;                                       !- Number of Times Runperiod to be Repeated

OS:Site,
  {becb1649-e31e-4c42-87b4-7ff82e3dda80}, !- Handle
  CA_BURBANK-GLNDLE-PASAD-_USA Design_Conditions, !- Name
  34.2,                                   !- Latitude {deg}
  -118.36,                                !- Longitude {deg}
  -8,                                     !- Time Zone {hr}
  223.1136,                               !- Elevation {m}
  ;                                       !- Terrain

OS:SizingPeriod:DesignDay,
  {03c92c41-beb8-4a8e-8041-f11ea8ba1196}, !- Handle
  CA_BURBANK-GLNDLE-PASAD- Ann Htg 99.6% Condns DB, !- Name
  3.8,                                    !- Maximum Dry-Bulb Temperature {C}
  0,                                      !- Daily Dry-Bulb Temperature Range {deltaC}
  3.8,                                    !- Humidity Indicating Conditions at Maximum Dry-Bulb
  98675,                                  !- Barometric Pressure {Pa}
  0.8,                                    !- Wind Speed {m/s}
  350,                                    !- Wind Direction {deg}
  0,                                      !- Sky Clearness
  0,                                      !- Rain Indicator
  0,                                      !- Snow Indicator
  21,                                     !- Day of Month
  12,                                     !- Month
  WinterDesignDay,                        !- Day Type
  0,                                      !- Daylight Saving Time Indicator
  Wetbulb,                                !- Humidity Indicating Type
  ,                                       !- Humidity Indicating Day Schedule Name
  DefaultMultipliers,                     !- Dry-Bulb Temperature Range Modifier Type
  ,                                       !- Dry-Bulb Temperature Range Modifier Schedule Name
  ASHRAEClearSky;                         !- Solar Model Indicator

OS:SizingPeriod:DesignDay,
  {28136248-f93b-4518-8ad6-7ae3a021f98e}, !- Handle
  CA_BURBANK-GLNDLE-PASAD- Ann Clg .4% Condns DB=>MWB, !- Name
  36.4,                                   !- Maximum Dry-Bulb Temperature {C}
  12.9,                                   !- Daily Dry-Bulb Temperature Range {deltaC}
  19.9,                                   !- Humidity Indicating Conditions at Maximum Dry-Bulb
  98675,                                  !- Barometric Pressure {Pa}
  3.8,                                    !- Wind Speed {m/s}
  180,                                    !- Wind Direction {deg}
  0,                                      !- Sky Clearness
  0,                                      !- Rain Indicator
  0,                                      !- Snow Indicator
  21,                                     !- Day of Month
  8,                                      !- Month
  SummerDesignDay,                        !- Day Type
  0,                                      !- Daylight Saving Time Indicator
  Wetbulb,                                !- Humidity Indicating Type
  ,                                       !- Humidity Indicating Day Schedule Name
  DefaultMultipliers,                     !- Dry-Bulb Temperature Range Modifier Type
  ,                                       !- Dry-Bulb Temperature Range Modifier Schedule Name
  ASHRAETau,                              !- Solar Model Indicator
  ,                                       !- Beam Solar Day Schedule Name
  ,                                       !- Diffuse Solar Day Schedule Name
  0.378,                                  !- ASHRAE Taub {dimensionless}
  2.416;                                  !- ASHRAE Taud {dimensionless}

OS:SizingPeriod:DesignDay,
  {0b7d8dfc-137a-488a-9c8f-51beeab6ea5c}, !- Handle
  CA_BURBANK-GLNDLE-PASAD- Ann Clg .4% Condns WB=>MDB, !- Name
  32,                                     !- Maximum Dry-Bulb Temperature {C}
  12.9,                                   !- Daily Dry-Bulb Temperature Range {deltaC}
  22.6,                                   !- Humidity Indicating Conditions at Maximum Dry-Bulb
  98675,                                  !- Barometric Pressure {Pa}
  3.8,                                    !- Wind Speed {m/s}
  180,                                    !- Wind Direction {deg}
  0,                                      !- Sky Clearness
  0,                                      !- Rain Indicator
  0,                                      !- Snow Indicator
  21,                                     !- Day of Month
  8,                                      !- Month
  SummerDesignDay,                        !- Day Type
  0,                                      !- Daylight Saving Time Indicator
  Wetbulb,                                !- Humidity Indicating Type
  ,                                       !- Humidity Indicating Day Schedule Name
  DefaultMultipliers,                     !- Dry-Bulb Temperature Range Modifier Type
  ,                                       !- Dry-Bulb Temperature Range Modifier Schedule Name
  ASHRAETau,                              !- Solar Model Indicator
  ,                                       !- Beam Solar Day Schedule Name
  ,                                       !- Diffuse Solar Day Schedule Name
  0.378,                                  !- ASHRAE Taub {dimensionless}
  2.416;                                  !- ASHRAE Taud {dimensionless}

OS:SizingPeriod:DesignDay,
  {4d092e7e-8107-4b63-8c92-8b00db94ddcd}, !- Handle
  CA_BURBANK-GLNDLE-PASAD- Ann Clg .4% Condns DP=>MDB, !- Name
  25.4,                                   !- Maximum Dry-Bulb Temperature {C}
  12.9,                                   !- Daily Dry-Bulb Temperature Range {deltaC}
  19.3,                                   !- Humidity Indicating Conditions at Maximum Dry-Bulb
  98675,                                  !- Barometric Pressure {Pa}
  3.8,                                    !- Wind Speed {m/s}
  180,                                    !- Wind Direction {deg}
  0,                                      !- Sky Clearness
  0,                                      !- Rain Indicator
  0,                                      !- Snow Indicator
  21,                                     !- Day of Month
  8,                                      !- Month
  SummerDesignDay,                        !- Day Type
  0,                                      !- Daylight Saving Time Indicator
  Dewpoint,                               !- Humidity Indicating Type
  ,                                       !- Humidity Indicating Day Schedule Name
  DefaultMultipliers,                     !- Dry-Bulb Temperature Range Modifier Type
  ,                                       !- Dry-Bulb Temperature Range Modifier Schedule Name
  ASHRAETau,                              !- Solar Model Indicator
  ,                                       !- Beam Solar Day Schedule Name
  ,                                       !- Diffuse Solar Day Schedule Name
  0.378,                                  !- ASHRAE Taub {dimensionless}
  2.416;                                  !- ASHRAE Taud {dimensionless}

OS:SizingPeriod:DesignDay,
  {263afdd1-134e-4a95-a24b-20125e572270}, !- Handle
  CA_BURBANK-GLNDLE-PASAD- June .4% Condns DB=>MCWB, !- Name
  36.7,                                   !- Maximum Dry-Bulb Temperature {C}
  11,                                     !- Daily Dry-Bulb Temperature Range {deltaC}
  19.6,                                   !- Humidity Indicating Conditions at Maximum Dry-Bulb
  98675,                                  !- Barometric Pressure {Pa}
  2.7,                                    !- Wind Speed {m/s}
  180,                                    !- Wind Direction {deg}
  0,                                      !- Sky Clearness
  0,                                      !- Rain Indicator
  0,                                      !- Snow Indicator
  21,                                     !- Day of Month
  6,                                      !- Month
  SummerDesignDay,                        !- Day Type
  0,                                      !- Daylight Saving Time Indicator
  Wetbulb,                                !- Humidity Indicating Type
  ,                                       !- Humidity Indicating Day Schedule Name
  DefaultMultipliers,                     !- Dry-Bulb Temperature Range Modifier Type
  ,                                       !- Dry-Bulb Temperature Range Modifier Schedule Name
  ASHRAETau,                              !- Solar Model Indicator
  ,                                       !- Beam Solar Day Schedule Name
  ,                                       !- Diffuse Solar Day Schedule Name
  0.401,                                  !- ASHRAE Taub {dimensionless}
  2.311;                                  !- ASHRAE Taud {dimensionless}

OS:SizingPeriod:DesignDay,
  {25a6d148-9866-4ae2-89f9-0ef861f8302e}, !- Handle
  CA_BURBANK-GLNDLE-PASAD- July .4% Condns DB=>MCWB, !- Name
  36.7,                                   !- Maximum Dry-Bulb Temperature {C}
  12.1,                                   !- Daily Dry-Bulb Temperature Range {deltaC}
  21.7,                                   !- Humidity Indicating Conditions at Maximum Dry-Bulb
  98675,                                  !- Barometric Pressure {Pa}
  2.8,                                    !- Wind Speed {m/s}
  180,                                    !- Wind Direction {deg}
  0,                                      !- Sky Clearness
  0,                                      !- Rain Indicator
  0,                                      !- Snow Indicator
  21,                                     !- Day of Month
  7,                                      !- Month
  SummerDesignDay,                        !- Day Type
  0,                                      !- Daylight Saving Time Indicator
  Wetbulb,                                !- Humidity Indicating Type
  ,                                       !- Humidity Indicating Day Schedule Name
  DefaultMultipliers,                     !- Dry-Bulb Temperature Range Modifier Type
  ,                                       !- Dry-Bulb Temperature Range Modifier Schedule Name
  ASHRAETau,                              !- Solar Model Indicator
  ,                                       !- Beam Solar Day Schedule Name
  ,                                       !- Diffuse Solar Day Schedule Name
  0.4,                                    !- ASHRAE Taub {dimensionless}
  2.378;                                  !- ASHRAE Taud {dimensionless}

OS:SizingPeriod:DesignDay,
  {cc0ac287-d33a-4b16-a13c-fcc4442d61cf}, !- Handle
  CA_BURBANK-GLNDLE-PASAD- August .4% Condns DB=>MCWB, !- Name
  38.1,                                   !- Maximum Dry-Bulb Temperature {C}
  12.9,                                   !- Daily Dry-Bulb Temperature Range {deltaC}
  20.6,                                   !- Humidity Indicating Conditions at Maximum Dry-Bulb
  98675,                                  !- Barometric Pressure {Pa}
  2.5,                                    !- Wind Speed {m/s}
  180,                                    !- Wind Direction {deg}
  0,                                      !- Sky Clearness
  0,                                      !- Rain Indicator
  0,                                      !- Snow Indicator
  21,                                     !- Day of Month
  8,                                      !- Month
  SummerDesignDay,                        !- Day Type
  0,                                      !- Daylight Saving Time Indicator
  Wetbulb,                                !- Humidity Indicating Type
  ,                                       !- Humidity Indicating Day Schedule Name
  DefaultMultipliers,                     !- Dry-Bulb Temperature Range Modifier Type
  ,                                       !- Dry-Bulb Temperature Range Modifier Schedule Name
  ASHRAETau,                              !- Solar Model Indicator
  ,                                       !- Beam Solar Day Schedule Name
  ,                                       !- Diffuse Solar Day Schedule Name
  0.378,                                  !- ASHRAE Taub {dimensionless}
  2.416;                                  !- ASHRAE Taud {dimensionless}

OS:SizingPeriod:DesignDay,
  {add997a0-5b42-4571-b5ea-4e8e140937a1}, !- Handle
  CA_BURBANK-GLNDLE-PASAD- September .4% Condns DB=>MCWB, !- Name
  38.8,                                   !- Maximum Dry-Bulb Temperature {C}
  12.8,                                   !- Daily Dry-Bulb Temperature Range {deltaC}
  20.5,                                   !- Humidity Indicating Conditions at Maximum Dry-Bulb
  98675,                                  !- Barometric Pressure {Pa}
  2.2,                                    !- Wind Speed {m/s}
  180,                                    !- Wind Direction {deg}
  0,                                      !- Sky Clearness
  0,                                      !- Rain Indicator
  0,                                      !- Snow Indicator
  21,                                     !- Day of Month
  9,                                      !- Month
  SummerDesignDay,                        !- Day Type
  0,                                      !- Daylight Saving Time Indicator
  Wetbulb,                                !- Humidity Indicating Type
  ,                                       !- Humidity Indicating Day Schedule Name
  DefaultMultipliers,                     !- Dry-Bulb Temperature Range Modifier Type
  ,                                       !- Dry-Bulb Temperature Range Modifier Schedule Name
  ASHRAETau,                              !- Solar Model Indicator
  ,                                       !- Beam Solar Day Schedule Name
  ,                                       !- Diffuse Solar Day Schedule Name
  0.367,                                  !- ASHRAE Taub {dimensionless}
  2.443;                                  !- ASHRAE Taud {dimensionless}

OS:SizingPeriod:DesignDay,
  {a7b651fd-4db1-4029-a878-0e08adcbb5ee}, !- Handle
  CA_BURBANK-GLNDLE-PASAD- October .4% Condns DB=>MCWB, !- Name
  36,                                     !- Maximum Dry-Bulb Temperature {C}
  12.3,                                   !- Daily Dry-Bulb Temperature Range {deltaC}
  17.7,                                   !- Humidity Indicating Conditions at Maximum Dry-Bulb
  98675,                                  !- Barometric Pressure {Pa}
  2,                                      !- Wind Speed {m/s}
  180,                                    !- Wind Direction {deg}
  0,                                      !- Sky Clearness
  0,                                      !- Rain Indicator
  0,                                      !- Snow Indicator
  21,                                     !- Day of Month
  10,                                     !- Month
  SummerDesignDay,                        !- Day Type
  0,                                      !- Daylight Saving Time Indicator
  Wetbulb,                                !- Humidity Indicating Type
  ,                                       !- Humidity Indicating Day Schedule Name
  DefaultMultipliers,                     !- Dry-Bulb Temperature Range Modifier Type
  ,                                       !- Dry-Bulb Temperature Range Modifier Schedule Name
  ASHRAETau,                              !- Solar Model Indicator
  ,                                       !- Beam Solar Day Schedule Name
  ,                                       !- Diffuse Solar Day Schedule Name
  0.374,                                  !- ASHRAE Taub {dimensionless}
  2.382;                                  !- ASHRAE Taud {dimensionless}

OS:SizingPeriod:DesignDay,
  {c5a5a25f-62a3-4202-b34a-0e3efc0a3f87}, !- Handle
  CA_BURBANK-GLNDLE-PASAD- November .4% Condns DB=>MCWB, !- Name
  31.7,                                   !- Maximum Dry-Bulb Temperature {C}
  12.6,                                   !- Daily Dry-Bulb Temperature Range {deltaC}
  14.8,                                   !- Humidity Indicating Conditions at Maximum Dry-Bulb
  98675,                                  !- Barometric Pressure {Pa}
  1.8,                                    !- Wind Speed {m/s}
  180,                                    !- Wind Direction {deg}
  0,                                      !- Sky Clearness
  0,                                      !- Rain Indicator
  0,                                      !- Snow Indicator
  21,                                     !- Day of Month
  11,                                     !- Month
  SummerDesignDay,                        !- Day Type
  0,                                      !- Daylight Saving Time Indicator
  Wetbulb,                                !- Humidity Indicating Type
  ,                                       !- Humidity Indicating Day Schedule Name
  DefaultMultipliers,                     !- Dry-Bulb Temperature Range Modifier Type
  ,                                       !- Dry-Bulb Temperature Range Modifier Schedule Name
  ASHRAETau,                              !- Solar Model Indicator
  ,                                       !- Beam Solar Day Schedule Name
  ,                                       !- Diffuse Solar Day Schedule Name
  0.319,                                  !- ASHRAE Taub {dimensionless}
  2.546;                                  !- ASHRAE Taud {dimensionless}

OS:WeatherFile,
  {d73000e0-78cc-4eb5-8062-5c35a57442bb}, !- Handle
  CA_BURBANK-GLNDLE-PASAD-,               !- City
  -,                                      !- State Province Region
  USA,                                    !- Country
  Custom-722880,                          !- Data Source
  722880,                                 !- WMO Number
  34.2,                                   !- Latitude {deg}
  -118.36,                                !- Longitude {deg}
  -8,                                     !- Time Zone {hr}
  223,                                    !- Elevation {m}
  file:///C:/Users/agoyal/OneDrive - TRC/Documents/CBECC-Com 2022 Data/EPW/CTZ09S22A.epw, !- Url
  9DC678B5;                               !- Checksum

OS:Sizing:Parameters,
  {36207a08-4e42-41f2-bec4-db6095e2acbd}, !- Handle
  1,                                      !- Heating Sizing Factor
  1;                                      !- Cooling Sizing Factor

OS:Material,
  {6dc4dcad-abad-4767-919b-92a25d01d2e8}, !- Handle
  Gypsum Board - 1/2 in.,                 !- Name
  MediumRough,                            !- Roughness
  0.0127,                                 !- Thickness {m}
  0.158656446866265,                      !- Conductivity {W/m-K}
  640.738534958406,                       !- Density {kg/m3}
  1130.436,                               !- Specific Heat {J/kg-K}
  0.9,                                    !- Thermal Absorptance
  0.7,                                    !- Solar Absorptance
  0.8;                                    !- Visible Absorptance

OS:Material,
  {14e7563e-78d6-439a-adef-2ccd3f6ed4f2}, !- Handle
  Gypsum Board - 5/8 in.,                 !- Name
  Smooth,                                 !- Roughness
  0.016002,                               !- Thickness {m}
  0.158656446866265,                      !- Conductivity {W/m-K}
  640.738534958406,                       !- Density {kg/m3}
  1130.436,                               !- Specific Heat {J/kg-K}
  0.9,                                    !- Thermal Absorptance
  0.7,                                    !- Solar Absorptance
  0.8;                                    !- Visible Absorptance

OS:Material,
  {06d98714-9567-4cf0-8735-c2119658d60f}, !- Handle
  Stucco - 7/8 in.,                       !- Name
  MediumRough,                            !- Roughness
  0.022352,                               !- Thickness {m}
  0.700947539880412,                      !- Conductivity {W/m-K}
  1855.09824333832,                       !- Density {kg/m3}
  837.36,                                 !- Specific Heat {J/kg-K}
  0.9,                                    !- Thermal Absorptance
  0.7,                                    !- Solar Absorptance
  0.8;                                    !- Visible Absorptance

OS:Material,
  {97f4178c-f84d-4079-9023-74d0a00e3e23}, !- Handle
  Carpet - 3/4 in.,                       !- Name
  Smooth,                                 !- Roughness
  0.01905,                                !- Thickness {m}
  0.0455183217255675,                     !- Conductivity {W/m-K}
  288.332340731283,                       !- Density {kg/m3}
  1381.644,                               !- Specific Heat {J/kg-K}
  0.9,                                    !- Thermal Absorptance
  0.7,                                    !- Solar Absorptance
  0.8;                                    !- Visible Absorptance

OS:Material,
  {c55f8ba5-64d6-4951-8cb2-3bf95f611461}, !- Handle
  Plywood - 5/8 in.,                      !- Name
  Smooth,                                 !- Roughness
  0.016002,                               !- Thickness {m}
  0.115440002246971,                      !- Conductivity {W/m-K}
  480.553901218804,                       !- Density {kg/m3}
  1884.06;                                !- Specific Heat {J/kg-K}

OS:Material,
  {61e8585a-1218-41ce-90a5-0935ae53e338}, !- Handle
  Compliance Insulation R1.54,            !- Name
  Smooth,                                 !- Roughness
  0.0062429136,                           !- Thickness {m}
  0.0230187710627394,                     !- Conductivity {W/m-K}
  16.0184633739601,                       !- Density {kg/m3}
  1130.436;                               !- Specific Heat {J/kg-K}

OS:Material,
  {1062cad6-eca4-44af-86a2-a56c0bd93d10}, !- Handle
  Compliance Insulation R1.00,            !- Name
  Smooth,                                 !- Roughness
  0.00405384,                             !- Thickness {m}
  0.0230187710627394,                     !- Conductivity {W/m-K}
  16.0184633739601,                       !- Density {kg/m3}
  1130.436;                               !- Specific Heat {J/kg-K}

OS:Material,
  {026cbf1c-0c46-4698-928d-848b211ae9f2}, !- Handle
  Compliance Insulation R1.35,            !- Name
  Smooth,                                 !- Roughness
  0.005472684,                            !- Thickness {m}
  0.0230187710627394,                     !- Conductivity {W/m-K}
  16.0184633739601,                       !- Density {kg/m3}
  1130.436;                               !- Specific Heat {J/kg-K}

OS:Material,
  {5712e58c-5c4c-4411-b38e-74af4b7a36b1}, !- Handle
  Compliance Insulation R3.00,            !- Name
  MediumRough,                            !- Roughness
  0.01216152,                             !- Thickness {m}
  0.0230187710627394,                     !- Conductivity {W/m-K}
  16.0184633739601,                       !- Density {kg/m3}
  1130.436,                               !- Specific Heat {J/kg-K}
  0.9,                                    !- Thermal Absorptance
  0.7,                                    !- Solar Absorptance
  0.8;                                    !- Visible Absorptance

OS:Material,
  {c9f9eb85-490c-46ec-9428-04408d830d58}, !- Handle
  Compliance Insulation R6.00,            !- Name
  Smooth,                                 !- Roughness
  0.02432304,                             !- Thickness {m}
  0.0230187710627394,                     !- Conductivity {W/m-K}
  16.0184633739601,                       !- Density {kg/m3}
  1130.436;                               !- Specific Heat {J/kg-K}

OS:Material:NoMass,
  {95d3fd3d-41f9-4966-9b92-dfd933866716}, !- Handle
  WoodFrameWall16inOC R11.25,             !- Name
  Smooth,                                 !- Roughness
  1.26865197459958;                       !- Thermal Resistance {m2-K/W}

OS:Material,
  {f0037339-67e8-4e71-bf0b-6c9106c50a9b}, !- Handle
  Concrete - 140 lb/ft3 - 10 in.,         !- Name
  Smooth,                                 !- Roughness
  0.254,                                  !- Thickness {m}
  1.95140333633374,                       !- Conductivity {W/m-K}
  2239.06081041215,                       !- Density {kg/m3}
  921.096,                                !- Specific Heat {J/kg-K}
  0.9,                                    !- Thermal Absorptance
  0.7,                                    !- Solar Absorptance
  0.8;                                    !- Visible Absorptance

OS:Material:NoMass,
  {f6c5e804-1a53-4c29-ba6f-21577670400c}, !- Handle
  WoodRoof16OCCavInsR38,                  !- Name
  Smooth,                                 !- Roughness
  4.68171312301043,                       !- Thermal Resistance {m2-K/W}
  0.9,                                    !- Thermal Absorptance
  0.7,                                    !- Solar Absorptance
  0.8;                                    !- Visible Absorptance

OS:Material,
  {c96401c7-6b40-4372-9533-e1e466a0de71}, !- Handle
  Building Paper - 1/16 in.,              !- Name
  Smooth,                                 !- Roughness
  0.001524,                               !- Thickness {m}
  0.28851346888411,                       !- Conductivity {W/m-K}
  96.1107802437608,                       !- Density {kg/m3}
  1256.04;                                !- Specific Heat {J/kg-K}

OS:Material,
  {53d9baa2-01ea-4f0a-ad1c-d1db18baa781}, !- Handle
  Fiberboard sheathing - 1/2 in.,         !- Name
  Smooth,                                 !- Roughness
  0.0127,                                 !- Thickness {m}
  0.0706139743879526,                     !- Conductivity {W/m-K}
  399.820845814045,                       !- Density {kg/m3}
  1297.908;                               !- Specific Heat {J/kg-K}

OS:Material,
  {34941076-9c0d-4b50-b86b-6a48e2aa98b8}, !- Handle
  Roofing felt - 1/8 in.,                 !- Name
  MediumRough,                            !- Roughness
  0.001524,                               !- Thickness {m}
  1.19714916872909,                       !- Conductivity {W/m-K}
  230.665872585026,                       !- Density {kg/m3}
  1256.04,                                !- Specific Heat {J/kg-K}
  0.75,                                   !- Thermal Absorptance
  0.37,                                   !- Solar Absorptance
  0.85;                                   !- Visible Absorptance

OS:Material:NoMass,
  {29cde8c5-78d6-4b16-a8a0-cc679a4b0f20}, !- Handle
  WoodFloor16inOCCavInsR0,                !- Name
  Smooth,                                 !- Roughness
  0.162021368987722;                      !- Thermal Resistance {m2-K/W}

OS:Material,
  {2eddb0b0-4b7b-4ac7-b7cc-803596482b62}, !- Handle
  Stone - 1 in.,                          !- Name
  MediumRough,                            !- Roughness
  0.0254,                                 !- Thickness {m}
  1.80342552235899,                       !- Conductivity {W/m-K}
  2239.06081041215,                       !- Density {kg/m3}
  921.096,                                !- Specific Heat {J/kg-K}
  0.85,                                   !- Thermal Absorptance
  0.92,                                   !- Solar Absorptance
  0.85;                                   !- Visible Absorptance

OS:Material:NoMass,
  {17bc9822-a87c-4b19-94a2-a52c93a99596}, !- Handle
  WoodFraming16inOC,                      !- Name
  Smooth,                                 !- Roughness
  0.14969365612996;                       !- Thermal Resistance {m2-K/W}

OS:Material,
  {bab6a5f2-2c7a-44cb-869f-12861d82123b}, !- Handle
  Concrete - 140 lb/ft3 - 8 in.,          !- Name
  Smooth,                                 !- Roughness
  0.2032,                                 !- Thickness {m}
  1.95140333633374,                       !- Conductivity {W/m-K}
  2239.06081041215,                       !- Density {kg/m3}
  921.096;                                !- Specific Heat {J/kg-K}

OS:Material,
  {d7183bf1-7455-4f25-8ee4-a2693dda1fd5}, !- Handle
  Concrete - 140 lb/ft3 - 4 in.,          !- Name
  Smooth,                                 !- Roughness