
OS:Version,
  {e7d84b73-cbdf-44f2-ab6e-9aa66923a642}, !- Handle
  2.7.2;                                  !- Version Identifier

OS:SimulationControl,
  {8ede60c5-3f67-44a5-b6f4-2c0442526493}, !- Handle
  ,                                       !- Do Zone Sizing Calculation
  ,                                       !- Do System Sizing Calculation
  ,                                       !- Do Plant Sizing Calculation
  No,                                     !- Run Simulation for Sizing Periods
  Yes,                                    !- Run Simulation for Weather File Run Periods
  ,                                       !- Loads Convergence Tolerance Value
  ,                                       !- Temperature Convergence Tolerance Value {deltaC}
  MinimalShadowing,                       !- Solar Distribution
  50;                                     !- Maximum Number of Warmup Days

OS:YearDescription,
  {daa3fb60-c10c-4939-bcb7-510fc216bc80}, !- Handle
  2009,                                   !- Calendar Year
  ,                                       !- Day of Week for Start Day
  ;                                       !- Is Leap Year

OS:RunPeriod,
  {43523573-31bf-40ab-a036-80bb339f7228}, !- Handle
  SACRAMENTO-EXECUTIVE_724830_CZ2010,     !- Name
  1,                                      !- Begin Month
  1,                                      !- Begin Day of Month
  12,                                     !- End Month
  31,                                     !- End Day of Month
  No,                                     !- Use Weather File Holidays and Special Days
  No,                                     !- Use Weather File Daylight Saving Period
  Yes,                                    !- Apply Weekend Holiday Rule
  ,                                       !- Use Weather File Rain Indicators
  ,                                       !- Use Weather File Snow Indicators
  ;                                       !- Number of Times Runperiod to be Repeated

OS:Site,
  {32c9ddad-5459-44d4-8914-979afdbb4d1c}, !- Handle
  SACRAMENTO-EXECUTIVE-ARP Design_Conditions, !- Name
  38.58,                                  !- Latitude {deg}
  -121.49,                                !- Longitude {deg}
  -8,                                     !- Time Zone {hr}
  3.9624,                                 !- Elevation {m}
  ;                                       !- Terrain

OS:SizingPeriod:DesignDay,
  {5cc7387a-5730-49e9-9668-ab02ae906599}, !- Handle
  SACRAMENTO-EXECUTIVE-ARP Ann Htg 99.6% Condns DB, !- Name
  -0.2,                                   !- Maximum Dry-Bulb Temperature {C}
  0,                                      !- Daily Dry-Bulb Temperature Range {deltaC}
  -0.2,                                   !- Humidity Indicating Conditions at Maximum Dry-Bulb
  101277,                                 !- Barometric Pressure {Pa}
  0.4,                                    !- Wind Speed {m/s}
  90,                                     !- Wind Direction {deg}
  0,                                      !- Sky Clearness
  0,                                      !- Rain Indicator
  0,                                      !- Snow Indicator
  21,                                     !- Day of Month
  1,                                      !- Month
  WinterDesignDay,                        !- Day Type
  0,                                      !- Daylight Saving Time Indicator
  Wetbulb,                                !- Humidity Indicating Type
  ,                                       !- Humidity Indicating Day Schedule Name
  DefaultMultipliers,                     !- Dry-Bulb Temperature Range Modifier Type
  ,                                       !- Dry-Bulb Temperature Range Modifier Schedule Name
  ASHRAEClearSky;                         !- Solar Model Indicator

OS:SizingPeriod:DesignDay,
  {2aee37d8-1499-4a5a-9529-27c827faf8c0}, !- Handle
  SACRAMENTO-EXECUTIVE-ARP Ann Clg 0.4% Condns DB=>MCWB, !- Name
  37.9,                                   !- Maximum Dry-Bulb Temperature {C}
  17.3,                                   !- Daily Dry-Bulb Temperature Range {deltaC}
  21.1,                                   !- Humidity Indicating Conditions at Maximum Dry-Bulb
  101277,                                 !- Barometric Pressure {Pa}
  3.4,                                    !- Wind Speed {m/s}
  270,                                    !- Wind Direction {deg}
  0,                                      !- Sky Clearness
  0,                                      !- Rain Indicator
  0,                                      !- Snow Indicator
  21,                                     !- Day of Month
  7,                                      !- Month
  SummerDesignDay,                        !- Day Type
  0,                                      !- Daylight Saving Time Indicator
  Wetbulb,                                !- Humidity Indicating Type
  ,                                       !- Humidity Indicating Day Schedule Name
  DefaultMultipliers,                     !- Dry-Bulb Temperature Range Modifier Type
  ,                                       !- Dry-Bulb Temperature Range Modifier Schedule Name
  ASHRAETau,                              !- Solar Model Indicator
  ,                                       !- Beam Solar Day Schedule Name
  ,                                       !- Diffuse Solar Day Schedule Name
  0.382,                                  !- ASHRAE Taub {dimensionless}
  2.325;                                  !- ASHRAE Taud {dimensionless}

OS:SizingPeriod:DesignDay,
  {2ad48302-6713-48ca-983e-7f4c10b8c434}, !- Handle
  SACRAMENTO-EXECUTIVE-ARP Ann Clg 0.4% Condns DP=>MCDB, !- Name
  28.5,                                   !- Maximum Dry-Bulb Temperature {C}
  17.3,                                   !- Daily Dry-Bulb Temperature Range {deltaC}
  17.9,                                   !- Humidity Indicating Conditions at Maximum Dry-Bulb
  101277,                                 !- Barometric Pressure {Pa}
  3.3,                                    !- Wind Speed {m/s}
  270,                                    !- Wind Direction {deg}
  0,                                      !- Sky Clearness
  0,                                      !- Rain Indicator
  0,                                      !- Snow Indicator
  21,                                     !- Day of Month
  7,                                      !- Month
  SummerDesignDay,                        !- Day Type
  0,                                      !- Daylight Saving Time Indicator
  Dewpoint,                               !- Humidity Indicating Type
  ,                                       !- Humidity Indicating Day Schedule Name
  DefaultMultipliers,                     !- Dry-Bulb Temperature Range Modifier Type
  ,                                       !- Dry-Bulb Temperature Range Modifier Schedule Name
  ASHRAETau,                              !- Solar Model Indicator
  ,                                       !- Beam Solar Day Schedule Name
  ,                                       !- Diffuse Solar Day Schedule Name
  0.382,                                  !- ASHRAE Taub {dimensionless}
  2.325;                                  !- ASHRAE Taud {dimensionless}

OS:SizingPeriod:DesignDay,
  {b5754ec3-9763-4240-b3da-9dd3ea99d4e8}, !- Handle
  SACRAMENTO-EXECUTIVE-ARP JUN Clg 0.4% Condns DB=>MCWB, !- Name
  38.2,                                   !- Maximum Dry-Bulb Temperature {C}
  16.8,                                   !- Daily Dry-Bulb Temperature Range {deltaC}
  21.5,                                   !- Humidity Indicating Conditions at Maximum Dry-Bulb
  101277,                                 !- Barometric Pressure {Pa}
  4.1,                                    !- Wind Speed {m/s}
  157,                                    !- Wind Direction {deg}
  0,                                      !- Sky Clearness
  0,                                      !- Rain Indicator
  0,                                      !- Snow Indicator
  21,                                     !- Day of Month
  6,                                      !- Month
  SummerDesignDay,                        !- Day Type
  0,                                      !- Daylight Saving Time Indicator
  Wetbulb,                                !- Humidity Indicating Type
  ,                                       !- Humidity Indicating Day Schedule Name
  DefaultMultipliers,                     !- Dry-Bulb Temperature Range Modifier Type
  ,                                       !- Dry-Bulb Temperature Range Modifier Schedule Name
  ASHRAETau,                              !- Solar Model Indicator
  ,                                       !- Beam Solar Day Schedule Name
  ,                                       !- Diffuse Solar Day Schedule Name
  0.351,                                  !- ASHRAE Taub {dimensionless}
  2.494;                                  !- ASHRAE Taud {dimensionless}

OS:SizingPeriod:DesignDay,
  {70d0c7b8-db0a-4a1e-b046-e06a6accaad8}, !- Handle
  SACRAMENTO-EXECUTIVE-ARP JUL Clg 0.4% Condns DB=>MCWB, !- Name
  41,                                     !- Maximum Dry-Bulb Temperature {C}
  17.3,                                   !- Daily Dry-Bulb Temperature Range {deltaC}
  22.1,                                   !- Humidity Indicating Conditions at Maximum Dry-Bulb
  101277,                                 !- Barometric Pressure {Pa}
  2.9,                                    !- Wind Speed {m/s}
  225,                                    !- Wind Direction {deg}
  0,                                      !- Sky Clearness
  0,                                      !- Rain Indicator
  0,                                      !- Snow Indicator
  21,                                     !- Day of Month
  7,                                      !- Month
  SummerDesignDay,                        !- Day Type
  0,                                      !- Daylight Saving Time Indicator
  Wetbulb,                                !- Humidity Indicating Type
  ,                                       !- Humidity Indicating Day Schedule Name
  DefaultMultipliers,                     !- Dry-Bulb Temperature Range Modifier Type
  ,                                       !- Dry-Bulb Temperature Range Modifier Schedule Name
  ASHRAETau,                              !- Solar Model Indicator
  ,                                       !- Beam Solar Day Schedule Name
  ,                                       !- Diffuse Solar Day Schedule Name
  0.382,                                  !- ASHRAE Taub {dimensionless}
  2.325;                                  !- ASHRAE Taud {dimensionless}

OS:SizingPeriod:DesignDay,
  {937449c2-bf4b-443e-ada5-ce3ffad70e72}, !- Handle
  SACRAMENTO-EXECUTIVE-ARP AUG Clg 0.4% Condns DB=>MCWB, !- Name
  39.2,                                   !- Maximum Dry-Bulb Temperature {C}
  17.9,                                   !- Daily Dry-Bulb Temperature Range {deltaC}
  22.1,                                   !- Humidity Indicating Conditions at Maximum Dry-Bulb
  101277,                                 !- Barometric Pressure {Pa}
  3,                                      !- Wind Speed {m/s}
  292,                                    !- Wind Direction {deg}
  0,                                      !- Sky Clearness
  0,                                      !- Rain Indicator
  0,                                      !- Snow Indicator
  21,                                     !- Day of Month
  8,                                      !- Month
  SummerDesignDay,                        !- Day Type
  0,                                      !- Daylight Saving Time Indicator
  Wetbulb,                                !- Humidity Indicating Type
  ,                                       !- Humidity Indicating Day Schedule Name
  DefaultMultipliers,                     !- Dry-Bulb Temperature Range Modifier Type
  ,                                       !- Dry-Bulb Temperature Range Modifier Schedule Name
  ASHRAETau,                              !- Solar Model Indicator
  ,                                       !- Beam Solar Day Schedule Name
  ,                                       !- Diffuse Solar Day Schedule Name
  0.384,                                  !- ASHRAE Taub {dimensionless}
  2.328;                                  !- ASHRAE Taud {dimensionless}

OS:SizingPeriod:DesignDay,
  {65ec430f-1cf1-44af-a679-02dcb4f6a951}, !- Handle
  SACRAMENTO-EXECUTIVE-ARP SEP Clg 0.4% Condns DB=>MCWB, !- Name
  37.8,                                   !- Maximum Dry-Bulb Temperature {C}
  17.2,                                   !- Daily Dry-Bulb Temperature Range {deltaC}
  20.5,                                   !- Humidity Indicating Conditions at Maximum Dry-Bulb
  101277,                                 !- Barometric Pressure {Pa}
  2.4,                                    !- Wind Speed {m/s}
  0,                                      !- Wind Direction {deg}
  0,                                      !- Sky Clearness
  0,                                      !- Rain Indicator
  0,                                      !- Snow Indicator
  21,                                     !- Day of Month
  9,                                      !- Month
  SummerDesignDay,                        !- Day Type
  0,                                      !- Daylight Saving Time Indicator
  Wetbulb,                                !- Humidity Indicating Type
  ,                                       !- Humidity Indicating Day Schedule Name
  DefaultMultipliers,                     !- Dry-Bulb Temperature Range Modifier Type
  ,                                       !- Dry-Bulb Temperature Range Modifier Schedule Name
  ASHRAETau,                              !- Solar Model Indicator
  ,                                       !- Beam Solar Day Schedule Name
  ,                                       !- Diffuse Solar Day Schedule Name
  0.358,                                  !- ASHRAE Taub {dimensionless}
  2.451;                                  !- ASHRAE Taud {dimensionless}

OS:SizingPeriod:DesignDay,
  {15afb063-9a6c-4f21-a85d-7e760196a260}, !- Handle
  SACRAMENTO-EXECUTIVE-ARP OCT Clg 0.4% Condns DB=>MCWB, !- Name
  32.7,                                   !- Maximum Dry-Bulb Temperature {C}
  13,                                     !- Daily Dry-Bulb Temperature Range {deltaC}
  18.3,                                   !- Humidity Indicating Conditions at Maximum Dry-Bulb
  101277,                                 !- Barometric Pressure {Pa}
  2.1,                                    !- Wind Speed {m/s}
  337,                                    !- Wind Direction {deg}
  0,                                      !- Sky Clearness
  0,                                      !- Rain Indicator
  0,                                      !- Snow Indicator
  21,                                     !- Day of Month
  10,                                     !- Month
  SummerDesignDay,                        !- Day Type
  0,                                      !- Daylight Saving Time Indicator
  Wetbulb,                                !- Humidity Indicating Type
  ,                                       !- Humidity Indicating Day Schedule Name
  DefaultMultipliers,                     !- Dry-Bulb Temperature Range Modifier Type
  ,                                       !- Dry-Bulb Temperature Range Modifier Schedule Name
  ASHRAETau,                              !- Solar Model Indicator
  ,                                       !- Beam Solar Day Schedule Name
  ,                                       !- Diffuse Solar Day Schedule Name
  0.347,                                  !- ASHRAE Taub {dimensionless}
  2.412;                                  !- ASHRAE Taud {dimensionless}

OS:SizingPeriod:DesignDay,
  {a5f95b23-7a43-4e47-8057-175deed019ee}, !- Handle
  SACRAMENTO-EXECUTIVE-ARP NOV Clg 0.4% Condns DB=>MCWB, !- Name
  25.2,                                   !- Maximum Dry-Bulb Temperature {C}
  7.3,                                    !- Daily Dry-Bulb Temperature Range {deltaC}
  15.2,                                   !- Humidity Indicating Conditions at Maximum Dry-Bulb
  101277,                                 !- Barometric Pressure {Pa}
  2.4,                                    !- Wind Speed {m/s}
  292,                                    !- Wind Direction {deg}
  0,                                      !- Sky Clearness
  0,                                      !- Rain Indicator
  0,                                      !- Snow Indicator
  21,                                     !- Day of Month
  11,                                     !- Month
  SummerDesignDay,                        !- Day Type
  0,                                      !- Daylight Saving Time Indicator
  Wetbulb,                                !- Humidity Indicating Type
  ,                                       !- Humidity Indicating Day Schedule Name
  DefaultMultipliers,                     !- Dry-Bulb Temperature Range Modifier Type
  ,                                       !- Dry-Bulb Temperature Range Modifier Schedule Name
  ASHRAETau,                              !- Solar Model Indicator
  ,                                       !- Beam Solar Day Schedule Name
  ,                                       !- Diffuse Solar Day Schedule Name
  0.315,                                  !- ASHRAE Taub {dimensionless}
  2.59;                                   !- ASHRAE Taud {dimensionless}

OS:WeatherFile,
  {f3f26cff-4c4e-4848-ab60-9f5ccaef9fca}, !- Handle
  SACRAMENTO-EXECUTIVE-AP,                !- City
  -,                                      !- State Province Region
  USA,                                    !- Country
  Custom-724830,                          !- Data Source
  724830,                                 !- WMO Number
  38.5,                                   !- Latitude {deg}
  -121.5,                                 !- Longitude {deg}
  -8,                                     !- Time Zone {hr}
  5,                                      !- Elevation {m}
  file:///C:/Users/mnakajima/Documents/CBECC-Com 2019 Data/EPW/SACRAMENTO-EXECUTIVE_724830_CZ2010.epw, !- Url
  419CFB0E;                               !- Checksum

OS:Sizing:Parameters,
  {acfd32a6-8f74-492b-b6b5-14d9b99a8b68}, !- Handle
  1,                                      !- Heating Sizing Factor
  1;                                      !- Cooling Sizing Factor

OS:Material,
  {6fc914f2-c666-4944-b015-a2934fb5ef1c}, !- Handle
  Stucco - 7/8 in.,                       !- Name
  MediumRough,                            !- Roughness
  0.022352,                               !- Thickness {m}
  0.700947539880412,                      !- Conductivity {W/m-K}
  1855.09824333832,                       !- Density {kg/m3}
  837.36,                                 !- Specific Heat {J/kg-K}
  0.9,                                    !- Thermal Absorptance
  0.7,                                    !- Solar Absorptance
  0.8;                                    !- Visible Absorptance

OS:Material,
  {e196deed-b49a-497a-8a07-64621614db57}, !- Handle
  Compliance Insulation R13.99,           !- Name
  Smooth,                                 !- Roughness
  0.05671312,                             !- Thickness {m}
  0.0230187710627394,                     !- Conductivity {W/m-K}
  16.0184633739601,                       !- Density {kg/m3}
  1130.436;                               !- Specific Heat {J/kg-K}

OS:Material,
  {ddd7364d-739c-4b58-8230-0e2e3f6419ab}, !- Handle
  Air - Metal Wall Framing - 16 or 24 in. OC, !- Name
  Smooth,                                 !- Roughness
  0.1397,                                 !- Thickness {m}
  1.22016793979183,                       !- Conductivity {W/m-K}
  1.28147706991681,                       !- Density {kg/m3}
  1004.832;                               !- Specific Heat {J/kg-K}

OS:Material,
  {29ae6790-a6fa-4361-9cb2-c1e5bb2054a6}, !- Handle
  Gypsum Board - 1/2 in.,                 !- Name
  Smooth,                                 !- Roughness
  0.0127,                                 !- Thickness {m}
  0.158656446866265,                      !- Conductivity {W/m-K}
  640.738534958406,                       !- Density {kg/m3}
  1130.436,                               !- Specific Heat {J/kg-K}
  0.9,                                    !- Thermal Absorptance
  0.7,                                    !- Solar Absorptance
  0.8;                                    !- Visible Absorptance

OS:Material,
  {331847f0-aff2-416a-a801-6e1a39fefe8e}, !- Handle
  Gypsum Board - 5/8 in.,                 !- Name
  MediumRough,                            !- Roughness
  0.016002,                               !- Thickness {m}
  0.158656446866265,                      !- Conductivity {W/m-K}
  640.738534958406,                       !- Density {kg/m3}
  1130.436,                               !- Specific Heat {J/kg-K}
  0.9,                                    !- Thermal Absorptance
  0.7,                                    !- Solar Absorptance
  0.8;                                    !- Visible Absorptance

OS:Material,
  {c78e467c-c6a8-490a-8e95-dd749050cb22}, !- Handle
  Metal Standing Seam - 1/16 in.,         !- Name
  MediumRough,                            !- Roughness
  0.0015875,                              !- Thickness {m}
  2.21534037295537,                       !- Conductivity {W/m-K}
  7820.53418843482,                       !- Density {kg/m3}
  502.416,                                !- Specific Heat {J/kg-K}
  0.85,                                   !- Thermal Absorptance
  0.8,                                    !- Solar Absorptance
  0.85;                                   !- Visible Absorptance

OS:Material,
  {6868f06d-932d-4630-b462-5b2e7542f61c}, !- Handle
  Compliance Insulation R28.63,           !- Name
  Smooth,                                 !- Roughness
  0.11606149,                             !- Thickness {m}
  0.0230187710627394,                     !- Conductivity {W/m-K}
  16.0184633739601,                       !- Density {kg/m3}
  1130.436,                               !- Specific Heat {J/kg-K}
  0.9,                                    !- Thermal Absorptance
  0.7,                                    !- Solar Absorptance
  0.8;                                    !- Visible Absorptance

OS:Material,
  {3065f244-63d5-443b-a94b-7939fe727dee}, !- Handle
  Compliance Insulation R9.83,            !- Name
  MediumRough,                            !- Roughness
  0.03986911,                             !- Thickness {m}
  0.0230187710627394,                     !- Conductivity {W/m-K}
  16.0184633739601,                       !- Density {kg/m3}
  1130.436,                               !- Specific Heat {J/kg-K}
  0.9,                                    !- Thermal Absorptance
  0.7,                                    !- Solar Absorptance
  0.8;                                    !- Visible Absorptance

OS:Material,
  {a3994628-c3c5-46dc-a38f-14ddf54b497e}, !- Handle
  Plywood - 5/8 in.,                      !- Name
  Smooth,                                 !- Roughness
  0.016002,                               !- Thickness {m}
  0.115440002246971,                      !- Conductivity {W/m-K}
  480.553901218804,                       !- Density {kg/m3}
  1884.06;                                !- Specific Heat {J/kg-K}

OS:Material,
  {b9d7f1f1-411e-454c-bb11-23ce55b3d87f}, !- Handle
  Carpet - 3/4 in.,                       !- Name
  Smooth,                                 !- Roughness
  0.01905,                                !- Thickness {m}
  0.0455183217255675,                     !- Conductivity {W/m-K}
  288.332340731283,                       !- Density {kg/m3}
  1381.644,                               !- Specific Heat {J/kg-K}
  0.9,                                    !- Thermal Absorptance
  0.7,                                    !- Solar Absorptance
  0.8;                                    !- Visible Absorptance

OS:Material,
  {2087db0d-0fe0-4a1c-9bce-e231ca42609c}, !- Handle
  Acoustic Tile - 3/4 in.,                !- Name
  MediumRough,                            !- Roughness
  0.01905,                                !- Thickness {m}
  0.0576334643901672,                     !- Conductivity {W/m-K}
  288.332340731283,                       !- Density {kg/m3}
  795.492,                                !- Specific Heat {J/kg-K}
  0.9,                                    !- Thermal Absorptance
  0.7,                                    !- Solar Absorptance
  0.8;                                    !- Visible Absorptance

OS:Construction,
  {428f8b06-bcbc-48ff-b3f4-021877e19791}, !- Handle
  MetalFrameWallU062,                     !- Name
  ,                                       !- Surface Rendering Name
  {6fc914f2-c666-4944-b015-a2934fb5ef1c}, !- Layer 1
  {e196deed-b49a-497a-8a07-64621614db57}, !- Layer 2
  {ddd7364d-739c-4b58-8230-0e2e3f6419ab}, !- Layer 3
  {29ae6790-a6fa-4361-9cb2-c1e5bb2054a6}; !- Layer 4

OS:Construction,
  {29407747-c69f-489c-adbf-45b863641602}, !- Handle
  MetalFrameWallInterior,                 !- Name
  ,                                       !- Surface Rendering Name
  {331847f0-aff2-416a-a801-6e1a39fefe8e}, !- Layer 1
  {bd580d18-67e5-49ee-a222-48d2c5bb300e}, !- Layer 2
  {331847f0-aff2-416a-a801-6e1a39fefe8e}; !- Layer 3

OS:Material,
  {bd580d18-67e5-49ee-a222-48d2c5bb300e}, !- Handle
  Air - Metal Wall Framing - 16 or 24 in. OC 1, !- Name
  Smooth,                                 !- Roughness
  0.1397,                                 !- Thickness {m}
  1.22016793979183,                       !- Conductivity {W/m-K}
  1.28147706991681,                       !- Density {kg/m3}
  1004.832;                               !- Specific Heat {J/kg-K}

OS:Construction,
  {84f14fda-434e-41d7-b78e-28db2fe8ad7c}, !- Handle
  SteepNonresWoodFramingAndOtherRoofU034, !- Name
  ,                                       !- Surface Rendering Name
  {c78e467c-c6a8-490a-8e95-dd749050cb22}, !- Layer 1
  {6868f06d-932d-4630-b462-5b2e7542f61c}; !- Layer 2

OS:Construction,
  {2ec5ba10-ffe7-402a-a2d8-fd8736ad72dc}, !- Handle
  OtherFloorU071,                         !- Name
  ,                                       !- Surface Rendering Name
  {3065f244-63d5-443b-a94b-7939fe727dee}, !- Layer 1
  {a3994628-c3c5-46dc-a38f-14ddf54b497e}, !- Layer 2
  {b9d7f1f1-411e-454c-bb11-23ce55b3d87f}; !- Layer 3

OS:Construction,
  {9dda3cd1-1e33-4a9c-9b72-fedae40b605c}, !- Handle
  TypicalPlenumFloorInterior,             !- Name
  ,                                       !- Surface Rendering Name
  {2087db0d-0fe0-4a1c-9bce-e231ca42609c}; !- Layer 1

OS:WindowMaterial:SimpleGlazingSystem,
  {408907d2-6cd7-45fb-9379-a7eb410fec7f}, !- Handle
  Base_AllCZ_FixedWindowU36 Material,     !- Name
  2.04417480280085,                       !- U-Factor {W/m2-K}
  0.25,                                   !- Solar Heat Gain Coefficient
  0.42;                                   !- Visible Transmittance

OS:Construction,
  {5f15ef62-2f22-46f2-86cd-0560e0ef04d3}, !- Handle
  Base_AllCZ_FixedWindowU36,              !- Name
  ,                                       !- Surface Rendering Name
  {408907d2-6cd7-45fb-9379-a7eb410fec7f}; !- Layer 1

OS:WindowMaterial:SimpleGlazingSystem,
  {2ad0b6ad-dec6-4cb1-896f-4fdcb017d9c5}, !- Handle
  Glazed Door Material,                   !- Name
  2.55521850350106,                       !- U-Factor {W/m2-K}
  0.23,                                   !- Solar Heat Gain Coefficient
  0.17;                                   !- Visible Transmittance

OS:Construction,
  {2575723c-5b4c-4216-89e3-6547debb69ad}, !- Handle
  Glazed Door,                            !- Name
  ,                                       !- Surface Rendering Name
  {2ad0b6ad-dec6-4cb1-896f-4fdcb017d9c5}; !- Layer 1

OS:Curve:Biquadratic,
  {e6f35281-c2b2-4b3e-ba12-6b5e972dd7f8}, !- Handle
  CoilClgDXQRatio_fTwbToadbSI,            !- Name
  0.86779,                                !- Coefficient1 Constant
  0.014245,                               !- Coefficient2 x
  0.000554,                               !- Coefficient3 x**2
  -0.007569,                              !- Coefficient4 y
  3.2e-005,                               !- Coefficient5 y**2
  -0.000191,                              !- Coefficient6 x*y
  13.89,                                  !- Minimum Value of x
  25,                                     !- Maximum Value of x
  23.89,                                  !- Minimum Value of y
  46.11,                                  !- Maximum Value of y
  0.77,                                   !- Minimum Curve Output
  1.29;                                   !- Maximum Curve Output

OS:Curve:Cubic,
  {99248729-561f-44d0-9cf5-362fae8c6c5c}, !- Handle
  CoilClgDXSEEREIRRatio_fQFrac,           !- Name
  1,                                      !- Coefficient1 Constant
  0,                                      !- Coefficient2 x
  0,                                      !- Coefficient3 x**2
  0,                                      !- Coefficient4 x**3
  0.7,                                    !- Minimum Value of x
  1,                                      !- Maximum Value of x
  1,                                      !- Minimum Curve Output
  1;                                      !- Maximum Curve Output

OS:Curve:Quadratic,
  {fd56b9aa-b3a2-47b5-8f88-8abbcc198f9e}, !- Handle
  CoilClgDXSnglQRatio_fCFMRatio,          !- Name
  0.8,                                    !- Coefficient1 Constant
  0.2,                                    !- Coefficient2 x
  0,                                      !- Coefficient3 x**2
  0,                                      !- Minimum Value of x
  100,                                    !- Maximum Value of x