
OS:Version,
  {311b3482-27a4-4716-b217-635f0b04ece1}, !- Handle
  2.7.2;                                  !- Version Identifier

OS:SimulationControl,
  {d230d14e-1878-4cba-bc58-2a8bef3854ee}, !- Handle
  ,                                       !- Do Zone Sizing Calculation
  ,                                       !- Do System Sizing Calculation
  ,                                       !- Do Plant Sizing Calculation
  No,                                     !- Run Simulation for Sizing Periods
  Yes,                                    !- Run Simulation for Weather File Run Periods
  ,                                       !- Loads Convergence Tolerance Value
  ,                                       !- Temperature Convergence Tolerance Value {deltaC}
  FullExterior,                           !- Solar Distribution
  50;                                     !- Maximum Number of Warmup Days

OS:YearDescription,
  {e44263e1-6363-4dd5-b291-356354ddac5e}, !- Handle
  2009,                                   !- Calendar Year
  ,                                       !- Day of Week for Start Day
  ;                                       !- Is Leap Year

OS:RunPeriod,
  {d4ce6e4d-9986-4a84-9682-06521110d706}, !- Handle
  CTZ11S22A,                              !- Name
  1,                                      !- Begin Month
  1,                                      !- Begin Day of Month
  12,                                     !- End Month
  31,                                     !- End Day of Month
  No,                                     !- Use Weather File Holidays and Special Days
  No,                                     !- Use Weather File Daylight Saving Period
  Yes,                                    !- Apply Weekend Holiday Rule
  ,                                       !- Use Weather File Rain Indicators
  ,                                       !- Use Weather File Snow Indicators
  ;                                       !- Number of Times Runperiod to be Repeated

OS:Site,
  {4222c2c5-fb06-4ec5-bd8d-a4fdcf2b024e}, !- Handle
  CA_RED-BLUFF-MUNI-AP_USA Design_Conditions, !- Name
  40.15,                                  !- Latitude {deg}
  -122.25,                                !- Longitude {deg}
  -8,                                     !- Time Zone {hr}
  106.9848,                               !- Elevation {m}
  ;                                       !- Terrain

OS:SizingPeriod:DesignDay,
  {967a0e23-5d73-4eba-8e71-1ab2d8c46aae}, !- Handle
  CA_RED-BLUFF-MUNI-AP Ann Htg 99.6% Condns DB, !- Name
  -1.1,                                   !- Maximum Dry-Bulb Temperature {C}
  0,                                      !- Daily Dry-Bulb Temperature Range {deltaC}
  -1.1,                                   !- Humidity Indicating Conditions at Maximum Dry-Bulb
  100046,                                 !- Barometric Pressure {Pa}
  2.2,                                    !- Wind Speed {m/s}
  330,                                    !- Wind Direction {deg}
  0,                                      !- Sky Clearness
  0,                                      !- Rain Indicator
  0,                                      !- Snow Indicator
  21,                                     !- Day of Month
  12,                                     !- Month
  WinterDesignDay,                        !- Day Type
  0,                                      !- Daylight Saving Time Indicator
  Wetbulb,                                !- Humidity Indicating Type
  ,                                       !- Humidity Indicating Day Schedule Name
  DefaultMultipliers,                     !- Dry-Bulb Temperature Range Modifier Type
  ,                                       !- Dry-Bulb Temperature Range Modifier Schedule Name
  ASHRAEClearSky;                         !- Solar Model Indicator

OS:SizingPeriod:DesignDay,
  {525df0b7-b0f5-44ef-808e-047a70c89775}, !- Handle
  CA_RED-BLUFF-MUNI-AP Ann Clg .4% Condns DB=>MWB, !- Name
  40.4,                                   !- Maximum Dry-Bulb Temperature {C}
  17,                                     !- Daily Dry-Bulb Temperature Range {deltaC}
  20.2,                                   !- Humidity Indicating Conditions at Maximum Dry-Bulb
  100046,                                 !- Barometric Pressure {Pa}
  3.8,                                    !- Wind Speed {m/s}
  150,                                    !- Wind Direction {deg}
  0,                                      !- Sky Clearness
  0,                                      !- Rain Indicator
  0,                                      !- Snow Indicator
  21,                                     !- Day of Month
  7,                                      !- Month
  SummerDesignDay,                        !- Day Type
  0,                                      !- Daylight Saving Time Indicator
  Wetbulb,                                !- Humidity Indicating Type
  ,                                       !- Humidity Indicating Day Schedule Name
  DefaultMultipliers,                     !- Dry-Bulb Temperature Range Modifier Type
  ,                                       !- Dry-Bulb Temperature Range Modifier Schedule Name
  ASHRAETau,                              !- Solar Model Indicator
  ,                                       !- Beam Solar Day Schedule Name
  ,                                       !- Diffuse Solar Day Schedule Name
  0.354,                                  !- ASHRAE Taub {dimensionless}
  2.452;                                  !- ASHRAE Taud {dimensionless}

OS:SizingPeriod:DesignDay,
  {848c2630-f456-42ab-8106-838661436e52}, !- Handle
  CA_RED-BLUFF-MUNI-AP Ann Clg .4% Condns WB=>MDB, !- Name
  35,                                     !- Maximum Dry-Bulb Temperature {C}
  17,                                     !- Daily Dry-Bulb Temperature Range {deltaC}
  22.4,                                   !- Humidity Indicating Conditions at Maximum Dry-Bulb
  100046,                                 !- Barometric Pressure {Pa}
  3.8,                                    !- Wind Speed {m/s}
  150,                                    !- Wind Direction {deg}
  0,                                      !- Sky Clearness
  0,                                      !- Rain Indicator
  0,                                      !- Snow Indicator
  21,                                     !- Day of Month
  7,                                      !- Month
  SummerDesignDay,                        !- Day Type
  0,                                      !- Daylight Saving Time Indicator
  Wetbulb,                                !- Humidity Indicating Type
  ,                                       !- Humidity Indicating Day Schedule Name
  DefaultMultipliers,                     !- Dry-Bulb Temperature Range Modifier Type
  ,                                       !- Dry-Bulb Temperature Range Modifier Schedule Name
  ASHRAETau,                              !- Solar Model Indicator
  ,                                       !- Beam Solar Day Schedule Name
  ,                                       !- Diffuse Solar Day Schedule Name
  0.354,                                  !- ASHRAE Taub {dimensionless}
  2.452;                                  !- ASHRAE Taud {dimensionless}

OS:SizingPeriod:DesignDay,
  {e235fa7d-0110-44db-89aa-471c96e1e74b}, !- Handle
  CA_RED-BLUFF-MUNI-AP Ann Clg .4% Condns DP=>MDB, !- Name
  27.3,                                   !- Maximum Dry-Bulb Temperature {C}
  17,                                     !- Daily Dry-Bulb Temperature Range {deltaC}
  18.3,                                   !- Humidity Indicating Conditions at Maximum Dry-Bulb
  100046,                                 !- Barometric Pressure {Pa}
  3.8,                                    !- Wind Speed {m/s}
  150,                                    !- Wind Direction {deg}
  0,                                      !- Sky Clearness
  0,                                      !- Rain Indicator
  0,                                      !- Snow Indicator
  21,                                     !- Day of Month
  7,                                      !- Month
  SummerDesignDay,                        !- Day Type
  0,                                      !- Daylight Saving Time Indicator
  Dewpoint,                               !- Humidity Indicating Type
  ,                                       !- Humidity Indicating Day Schedule Name
  DefaultMultipliers,                     !- Dry-Bulb Temperature Range Modifier Type
  ,                                       !- Dry-Bulb Temperature Range Modifier Schedule Name
  ASHRAETau,                              !- Solar Model Indicator
  ,                                       !- Beam Solar Day Schedule Name
  ,                                       !- Diffuse Solar Day Schedule Name
  0.354,                                  !- ASHRAE Taub {dimensionless}
  2.452;                                  !- ASHRAE Taud {dimensionless}

OS:SizingPeriod:DesignDay,
  {0c113756-ff82-449d-80f2-3c694174ab09}, !- Handle
  CA_RED-BLUFF-MUNI-AP June .4% Condns DB=>MCWB, !- Name
  41.8,                                   !- Maximum Dry-Bulb Temperature {C}
  15.1,                                   !- Daily Dry-Bulb Temperature Range {deltaC}
  19.8,                                   !- Humidity Indicating Conditions at Maximum Dry-Bulb
  100046,                                 !- Barometric Pressure {Pa}
  3.8,                                    !- Wind Speed {m/s}
  150,                                    !- Wind Direction {deg}
  0,                                      !- Sky Clearness
  0,                                      !- Rain Indicator
  0,                                      !- Snow Indicator
  21,                                     !- Day of Month
  6,                                      !- Month
  SummerDesignDay,                        !- Day Type
  0,                                      !- Daylight Saving Time Indicator
  Wetbulb,                                !- Humidity Indicating Type
  ,                                       !- Humidity Indicating Day Schedule Name
  DefaultMultipliers,                     !- Dry-Bulb Temperature Range Modifier Type
  ,                                       !- Dry-Bulb Temperature Range Modifier Schedule Name
  ASHRAETau,                              !- Solar Model Indicator
  ,                                       !- Beam Solar Day Schedule Name
  ,                                       !- Diffuse Solar Day Schedule Name
  0.349,                                  !- ASHRAE Taub {dimensionless}
  2.478;                                  !- ASHRAE Taud {dimensionless}

OS:SizingPeriod:DesignDay,
  {176e9fb1-8261-4036-8d74-ce5eb7013d9b}, !- Handle
  CA_RED-BLUFF-MUNI-AP July .4% Condns DB=>MCWB, !- Name
  43.3,                                   !- Maximum Dry-Bulb Temperature {C}
  17,                                     !- Daily Dry-Bulb Temperature Range {deltaC}
  21.1,                                   !- Humidity Indicating Conditions at Maximum Dry-Bulb
  100046,                                 !- Barometric Pressure {Pa}
  3.1,                                    !- Wind Speed {m/s}
  150,                                    !- Wind Direction {deg}
  0,                                      !- Sky Clearness
  0,                                      !- Rain Indicator
  0,                                      !- Snow Indicator
  21,                                     !- Day of Month
  7,                                      !- Month
  SummerDesignDay,                        !- Day Type
  0,                                      !- Daylight Saving Time Indicator
  Wetbulb,                                !- Humidity Indicating Type
  ,                                       !- Humidity Indicating Day Schedule Name
  DefaultMultipliers,                     !- Dry-Bulb Temperature Range Modifier Type
  ,                                       !- Dry-Bulb Temperature Range Modifier Schedule Name
  ASHRAETau,                              !- Solar Model Indicator
  ,                                       !- Beam Solar Day Schedule Name
  ,                                       !- Diffuse Solar Day Schedule Name
  0.354,                                  !- ASHRAE Taub {dimensionless}
  2.452;                                  !- ASHRAE Taud {dimensionless}

OS:SizingPeriod:DesignDay,
  {5d750ede-bd19-48ff-8ff6-434cf53aa82d}, !- Handle
  CA_RED-BLUFF-MUNI-AP August .4% Condns DB=>MCWB, !- Name
  42.4,                                   !- Maximum Dry-Bulb Temperature {C}
  17.2,                                   !- Daily Dry-Bulb Temperature Range {deltaC}
  21.1,                                   !- Humidity Indicating Conditions at Maximum Dry-Bulb
  100046,                                 !- Barometric Pressure {Pa}
  3,                                      !- Wind Speed {m/s}
  150,                                    !- Wind Direction {deg}
  0,                                      !- Sky Clearness
  0,                                      !- Rain Indicator
  0,                                      !- Snow Indicator
  21,                                     !- Day of Month
  8,                                      !- Month
  SummerDesignDay,                        !- Day Type
  0,                                      !- Daylight Saving Time Indicator
  Wetbulb,                                !- Humidity Indicating Type
  ,                                       !- Humidity Indicating Day Schedule Name
  DefaultMultipliers,                     !- Dry-Bulb Temperature Range Modifier Type
  ,                                       !- Dry-Bulb Temperature Range Modifier Schedule Name
  ASHRAETau,                              !- Solar Model Indicator
  ,                                       !- Beam Solar Day Schedule Name
  ,                                       !- Diffuse Solar Day Schedule Name
  0.337,                                  !- ASHRAE Taub {dimensionless}
  2.494;                                  !- ASHRAE Taud {dimensionless}

OS:SizingPeriod:DesignDay,
  {8cedd793-9cb9-4d10-8066-12704e2aba4d}, !- Handle
  CA_RED-BLUFF-MUNI-AP September .4% Condns DB=>MCWB, !- Name
  39.7,                                   !- Maximum Dry-Bulb Temperature {C}
  17,                                     !- Daily Dry-Bulb Temperature Range {deltaC}
  18.4,                                   !- Humidity Indicating Conditions at Maximum Dry-Bulb
  100046,                                 !- Barometric Pressure {Pa}
  3.1,                                    !- Wind Speed {m/s}
  150,                                    !- Wind Direction {deg}
  0,                                      !- Sky Clearness
  0,                                      !- Rain Indicator
  0,                                      !- Snow Indicator
  21,                                     !- Day of Month
  9,                                      !- Month
  SummerDesignDay,                        !- Day Type
  0,                                      !- Daylight Saving Time Indicator
  Wetbulb,                                !- Humidity Indicating Type
  ,                                       !- Humidity Indicating Day Schedule Name
  DefaultMultipliers,                     !- Dry-Bulb Temperature Range Modifier Type
  ,                                       !- Dry-Bulb Temperature Range Modifier Schedule Name
  ASHRAETau,                              !- Solar Model Indicator
  ,                                       !- Beam Solar Day Schedule Name
  ,                                       !- Diffuse Solar Day Schedule Name
  0.339,                                  !- ASHRAE Taub {dimensionless}
  2.48;                                   !- ASHRAE Taud {dimensionless}

OS:SizingPeriod:DesignDay,
  {74a0a8e3-5088-4651-b553-9d3b0475d214}, !- Handle
  CA_RED-BLUFF-MUNI-AP October .4% Condns DB=>MCWB, !- Name
  35.1,                                   !- Maximum Dry-Bulb Temperature {C}
  14.3,                                   !- Daily Dry-Bulb Temperature Range {deltaC}
  17.4,                                   !- Humidity Indicating Conditions at Maximum Dry-Bulb
  100046,                                 !- Barometric Pressure {Pa}
  3.3,                                    !- Wind Speed {m/s}
  150,                                    !- Wind Direction {deg}
  0,                                      !- Sky Clearness
  0,                                      !- Rain Indicator
  0,                                      !- Snow Indicator
  21,                                     !- Day of Month
  10,                                     !- Month
  SummerDesignDay,                        !- Day Type
  0,                                      !- Daylight Saving Time Indicator
  Wetbulb,                                !- Humidity Indicating Type
  ,                                       !- Humidity Indicating Day Schedule Name
  DefaultMultipliers,                     !- Dry-Bulb Temperature Range Modifier Type
  ,                                       !- Dry-Bulb Temperature Range Modifier Schedule Name
  ASHRAETau,                              !- Solar Model Indicator
  ,                                       !- Beam Solar Day Schedule Name
  ,                                       !- Diffuse Solar Day Schedule Name
  0.329,                                  !- ASHRAE Taub {dimensionless}
  2.522;                                  !- ASHRAE Taud {dimensionless}

OS:SizingPeriod:DesignDay,
  {3802425b-07c7-40e7-bb2b-95f6e3604d0b}, !- Handle
  CA_RED-BLUFF-MUNI-AP November .4% Condns DB=>MCWB, !- Name
  26.6,                                   !- Maximum Dry-Bulb Temperature {C}
  11.3,                                   !- Daily Dry-Bulb Temperature Range {deltaC}
  14.4,                                   !- Humidity Indicating Conditions at Maximum Dry-Bulb
  100046,                                 !- Barometric Pressure {Pa}
  3.2,                                    !- Wind Speed {m/s}
  150,                                    !- Wind Direction {deg}
  0,                                      !- Sky Clearness
  0,                                      !- Rain Indicator
  0,                                      !- Snow Indicator
  21,                                     !- Day of Month
  11,                                     !- Month
  SummerDesignDay,                        !- Day Type
  0,                                      !- Daylight Saving Time Indicator
  Wetbulb,                                !- Humidity Indicating Type
  ,                                       !- Humidity Indicating Day Schedule Name
  DefaultMultipliers,                     !- Dry-Bulb Temperature Range Modifier Type
  ,                                       !- Dry-Bulb Temperature Range Modifier Schedule Name
  ASHRAETau,                              !- Solar Model Indicator
  ,                                       !- Beam Solar Day Schedule Name
  ,                                       !- Diffuse Solar Day Schedule Name
  0.31,                                   !- ASHRAE Taub {dimensionless}
  2.553;                                  !- ASHRAE Taud {dimensionless}

OS:WeatherFile,
  {83ba5778-bdb9-4c9b-8909-db4d5642027e}, !- Handle
  CA_RED-BLUFF-MUNI-AP,                   !- City
  -,                                      !- State Province Region
  USA,                                    !- Country
  Custom-725910,                          !- Data Source
  725910,                                 !- WMO Number
  40.15,                                  !- Latitude {deg}
  -122.25,                                !- Longitude {deg}
  -8,                                     !- Time Zone {hr}
  107,                                    !- Elevation {m}
  file:///C:/Users/agoyal/OneDrive - TRC/Documents/CBECC-Com 2022 Data/EPW/CTZ11S22A.epw, !- Url
  A5673526;                               !- Checksum

OS:Sizing:Parameters,
  {e0e27d51-537e-4029-bcc7-8d3099e1e799}, !- Handle
  1,                                      !- Heating Sizing Factor
  1;                                      !- Cooling Sizing Factor

OS:Material,
  {cb045fac-bc97-480c-84c9-15766065f8f3}, !- Handle
  Gypsum Board - 1/2 in.,                 !- Name
  MediumRough,                            !- Roughness
  0.0127,                                 !- Thickness {m}
  0.158656446866265,                      !- Conductivity {W/m-K}
  640.738534958406,                       !- Density {kg/m3}
  1130.436,                               !- Specific Heat {J/kg-K}
  0.9,                                    !- Thermal Absorptance
  0.7,                                    !- Solar Absorptance
  0.8;                                    !- Visible Absorptance

OS:Material,
  {56351a21-c898-4c60-bacf-45c3d9fd1a5e}, !- Handle
  Gypsum Board - 5/8 in.,                 !- Name
  Smooth,                                 !- Roughness
  0.016002,                               !- Thickness {m}
  0.158656446866265,                      !- Conductivity {W/m-K}
  640.738534958406,                       !- Density {kg/m3}
  1130.436,                               !- Specific Heat {J/kg-K}
  0.9,                                    !- Thermal Absorptance
  0.7,                                    !- Solar Absorptance
  0.8;                                    !- Visible Absorptance

OS:Material,
  {f9cd7d03-f66d-42e3-8b02-fcb97ae86694}, !- Handle
  Stucco - 7/8 in.,                       !- Name
  MediumRough,                            !- Roughness
  0.022352,                               !- Thickness {m}
  0.700947539880412,                      !- Conductivity {W/m-K}
  1855.09824333832,                       !- Density {kg/m3}
  837.36,                                 !- Specific Heat {J/kg-K}
  0.9,                                    !- Thermal Absorptance
  0.7,                                    !- Solar Absorptance
  0.8;                                    !- Visible Absorptance

OS:Material,
  {6a91dfb2-06e5-441b-b2ef-7e1f637017ea}, !- Handle
  Carpet - 3/4 in.,                       !- Name
  Smooth,                                 !- Roughness
  0.01905,                                !- Thickness {m}
  0.0455183217255675,                     !- Conductivity {W/m-K}
  288.332340731283,                       !- Density {kg/m3}
  1381.644,                               !- Specific Heat {J/kg-K}
  0.9,                                    !- Thermal Absorptance
  0.7,                                    !- Solar Absorptance
  0.8;                                    !- Visible Absorptance

OS:Material,
  {395857c3-604b-4438-9128-57e004bdd7ab}, !- Handle
  Plywood - 5/8 in.,                      !- Name
  Smooth,                                 !- Roughness
  0.016002,                               !- Thickness {m}
  0.115440002246971,                      !- Conductivity {W/m-K}
  480.553901218804,                       !- Density {kg/m3}
  1884.06;                                !- Specific Heat {J/kg-K}

OS:Material,
  {40c2187f-7683-4a1d-9be9-2b2d263019dc}, !- Handle
  Compliance Insulation R1.54,            !- Name
  Smooth,                                 !- Roughness
  0.0062429136,                           !- Thickness {m}
  0.0230187710627394,                     !- Conductivity {W/m-K}
  16.0184633739601,                       !- Density {kg/m3}
  1130.436;                               !- Specific Heat {J/kg-K}

OS:Material,
  {93735845-c762-4645-8136-9cb2821e0491}, !- Handle
  Compliance Insulation R1.00,            !- Name
  Smooth,                                 !- Roughness
  0.00405384,                             !- Thickness {m}
  0.0230187710627394,                     !- Conductivity {W/m-K}
  16.0184633739601,                       !- Density {kg/m3}
  1130.436;                               !- Specific Heat {J/kg-K}

OS:Material,
  {7706dd83-b84d-426b-bea5-7159fce282dc}, !- Handle
  Compliance Insulation R1.35,            !- Name
  Smooth,                                 !- Roughness
  0.005472684,                            !- Thickness {m}
  0.0230187710627394,                     !- Conductivity {W/m-K}
  16.0184633739601,                       !- Density {kg/m3}
  1130.436;                               !- Specific Heat {J/kg-K}

OS:Material,
  {85487de0-9143-43ab-940c-999b6c4a3d3a}, !- Handle
  Compliance Insulation R3.00,            !- Name
  MediumRough,                            !- Roughness
  0.01216152,                             !- Thickness {m}
  0.0230187710627394,                     !- Conductivity {W/m-K}
  16.0184633739601,                       !- Density {kg/m3}
  1130.436,                               !- Specific Heat {J/kg-K}
  0.9,                                    !- Thermal Absorptance
  0.7,                                    !- Solar Absorptance
  0.8;                                    !- Visible Absorptance

OS:Material:NoMass,
  {d480576e-1ce0-47c6-ab21-f53b4b4af1b3}, !- Handle
  WoodFrameWall16inOC R11.25,             !- Name
  Smooth,                                 !- Roughness
  1.26865197459958;                       !- Thermal Resistance {m2-K/W}

OS:Material,
  {6cd6dcbf-a358-4d25-84ae-eb79edc09cf7}, !- Handle
  Concrete - 140 lb/ft3 - 10 in.,         !- Name
  Smooth,                                 !- Roughness
  0.254,                                  !- Thickness {m}
  1.95140333633374,                       !- Conductivity {W/m-K}
  2239.06081041215,                       !- Density {kg/m3}
  921.096,                                !- Specific Heat {J/kg-K}
  0.9,                                    !- Thermal Absorptance
  0.7,                                    !- Solar Absorptance
  0.8;                                    !- Visible Absorptance

OS:Material:NoMass,
  {dfb10e29-a1cd-4fd1-8870-9c5469cf0526}, !- Handle
  WoodRoof16OCCavInsR38,                  !- Name
  Smooth,                                 !- Roughness
  4.68171312301043,                       !- Thermal Resistance {m2-K/W}
  0.9,                                    !- Thermal Absorptance
  0.7,                                    !- Solar Absorptance
  0.8;                                    !- Visible Absorptance

OS:Material,
  {c6cb1abe-eacb-4da5-8eb4-548d203889b1}, !- Handle
  Building Paper - 1/16 in.,              !- Name
  Smooth,                                 !- Roughness
  0.001524,                               !- Thickness {m}
  0.28851346888411,                       !- Conductivity {W/m-K}
  96.1107802437608,                       !- Density {kg/m3}
  1256.04;                                !- Specific Heat {J/kg-K}

OS:Material,
  {93490b25-bbe2-44d3-8b08-57e52b62b466}, !- Handle
  Fiberboard sheathing - 1/2 in.,         !- Name
  Smooth,                                 !- Roughness
  0.0127,                                 !- Thickness {m}
  0.0706139743879526,                     !- Conductivity {W/m-K}
  399.820845814045,                       !- Density {kg/m3}
  1297.908;                               !- Specific Heat {J/kg-K}

OS:Material,
  {c1f8b574-77c2-499f-ae83-ca94d3ab3ea4}, !- Handle
  Roofing felt - 1/8 in.,                 !- Name
  MediumRough,                            !- Roughness
  0.001524,                               !- Thickness {m}
  1.19714916872909,                       !- Conductivity {W/m-K}
  230.665872585026,                       !- Density {kg/m3}
  1256.04,                                !- Specific Heat {J/kg-K}
  0.75,                                   !- Thermal Absorptance
  0.37,                                   !- Solar Absorptance
  0.85;                                   !- Visible Absorptance

OS:Material:NoMass,
  {7a27acd8-33e8-41ab-ae58-680eec073870}, !- Handle
  WoodFloor16inOCCavInsR0,                !- Name
  Smooth,                                 !- Roughness
  0.162021368987722;                      !- Thermal Resistance {m2-K/W}

OS:Material,
  {340eb50d-d7d7-4bcc-9c78-cb625edc1f7c}, !- Handle
  Stone - 1 in.,                          !- Name
  MediumRough,                            !- Roughness
  0.0254,                                 !- Thickness {m}
  1.80342552235899,                       !- Conductivity {W/m-K}
  2239.06081041215,                       !- Density {kg/m3}
  921.096,                                !- Specific Heat {J/kg-K}
  0.85,                                   !- Thermal Absorptance
  0.92,                                   !- Solar Absorptance
  0.85;                                   !- Visible Absorptance

OS:Material:NoMass,
  {b56ce685-2458-4c9c-b06a-19e56b73c16e}, !- Handle
  WoodFraming16inOC,                      !- Name
  Smooth,                                 !- Roughness
  0.14969365612996;                       !- Thermal Resistance {m2-K/W}

OS:Material,
  {d5a32bcd-7f1d-44bc-9253-499741dae4c4}, !- Handle
  Concrete - 140 lb/ft3 - 8 in.,          !- Name
  Smooth,                                 !- Roughness
  0.2032,                                 !- Thickness {m}
  1.95140333633374,                       !- Conductivity {W/m-K}
  2239.06081041215,                       !- Density {kg/m3}
  921.096;                                !- Specific Heat {J/kg-K}

OS:Material,
  {e8f9bd10-ecd8-4f59-a03b-73277ee1f4af}, !- Handle
  Concrete - 140 lb/ft3 - 4 in.,          !- Name
  Smooth,                                 !- Roughness
  0.1016,                                 !- Thickness {m}
  1.95140333633374,                       !- Conductivity {W/m-K}
  2239.06081041215,                       !- Density {kg/m3}
  921.096;                                !- Specific Heat {J/kg-K}

OS:Material,
  {e1fb03a1-aeaa-4f2d-a71d-21239762a67c}, !- Handle
  Compliance Insulation R0.01,            !- Name
  Smooth,                                 !- Roughness
  4.05384e-005,                           !- Thickness {m}