
OS:Version,
  {4bf485b6-f99d-417c-a05d-0bc74a6ccaca}, !- Handle
  2.7.2;                                  !- Version Identifier

OS:SimulationControl,
  {269aece1-24a6-4ffa-b64d-200392d39ae2}, !- Handle
  ,                                       !- Do Zone Sizing Calculation
  ,                                       !- Do System Sizing Calculation
  ,                                       !- Do Plant Sizing Calculation
  Yes,                                    !- Run Simulation for Sizing Periods
  No,                                     !- Run Simulation for Weather File Run Periods
  ,                                       !- Loads Convergence Tolerance Value
  ,                                       !- Temperature Convergence Tolerance Value {deltaC}
  FullExterior,                           !- Solar Distribution
  50;                                     !- Maximum Number of Warmup Days

OS:Site,
  {3f0abbff-0adf-4311-a77e-272dec0b07bd}, !- Handle
  RED-BLUFF-MUNICIPAL-ARPT Design_Conditions, !- Name
  40.13,                                  !- Latitude {deg}
  -122.25,                                !- Longitude {deg}
  -8,                                     !- Time Zone {hr}
  106.0704,                               !- Elevation {m}
  ;                                       !- Terrain

OS:SizingPeriod:DesignDay,
  {ca93fd0c-f30d-4f0f-bf73-f352dce319cc}, !- Handle
  RED-BLUFF-MUNICIPAL-ARPT Ann Htg 99.6% Condns DB, !- Name
  -1,                                     !- Maximum Dry-Bulb Temperature {C}
  0,                                      !- Daily Dry-Bulb Temperature Range {deltaC}
  -1,                                     !- Humidity Indicating Conditions at Maximum Dry-Bulb
  100058,                                 !- Barometric Pressure {Pa}
  2.2,                                    !- Wind Speed {m/s}
  315,                                    !- Wind Direction {deg}
  0,                                      !- Sky Clearness
  0,                                      !- Rain Indicator
  0,                                      !- Snow Indicator
  21,                                     !- Day of Month
  1,                                      !- Month
  WinterDesignDay,                        !- Day Type
  0,                                      !- Daylight Saving Time Indicator
  Wetbulb,                                !- Humidity Indicating Type
  ,                                       !- Humidity Indicating Day Schedule Name
  DefaultMultipliers,                     !- Dry-Bulb Temperature Range Modifier Type
  ,                                       !- Dry-Bulb Temperature Range Modifier Schedule Name
  ASHRAEClearSky;                         !- Solar Model Indicator

OS:SizingPeriod:DesignDay,
  {75caa098-ab46-49ac-a61c-152c194df191}, !- Handle
  RED-BLUFF-MUNICIPAL-ARPT Ann Clg 0.4% Condns DB=>MCWB, !- Name
  40.7,                                   !- Maximum Dry-Bulb Temperature {C}
  16.9,                                   !- Daily Dry-Bulb Temperature Range {deltaC}
  20.5,                                   !- Humidity Indicating Conditions at Maximum Dry-Bulb
  100058,                                 !- Barometric Pressure {Pa}
  3.5,                                    !- Wind Speed {m/s}
  0,                                      !- Wind Direction {deg}
  0,                                      !- Sky Clearness
  0,                                      !- Rain Indicator
  0,                                      !- Snow Indicator
  21,                                     !- Day of Month
  7,                                      !- Month
  SummerDesignDay,                        !- Day Type
  0,                                      !- Daylight Saving Time Indicator
  Wetbulb,                                !- Humidity Indicating Type
  ,                                       !- Humidity Indicating Day Schedule Name
  DefaultMultipliers,                     !- Dry-Bulb Temperature Range Modifier Type
  ,                                       !- Dry-Bulb Temperature Range Modifier Schedule Name
  ASHRAETau,                              !- Solar Model Indicator
  ,                                       !- Beam Solar Day Schedule Name
  ,                                       !- Diffuse Solar Day Schedule Name
  0.364,                                  !- ASHRAE Taub {dimensionless}
  2.504;                                  !- ASHRAE Taud {dimensionless}

OS:SizingPeriod:DesignDay,
  {3f11bb80-9a83-427f-850c-63d772597df5}, !- Handle
  RED-BLUFF-MUNICIPAL-ARPT Ann Clg 0.4% Condns DP=>MCDB, !- Name
  27.5,                                   !- Maximum Dry-Bulb Temperature {C}
  16.9,                                   !- Daily Dry-Bulb Temperature Range {deltaC}
  18.9,                                   !- Humidity Indicating Conditions at Maximum Dry-Bulb
  100058,                                 !- Barometric Pressure {Pa}
  4.1,                                    !- Wind Speed {m/s}
  0,                                      !- Wind Direction {deg}
  0,                                      !- Sky Clearness
  0,                                      !- Rain Indicator
  0,                                      !- Snow Indicator
  21,                                     !- Day of Month
  7,                                      !- Month
  SummerDesignDay,                        !- Day Type
  0,                                      !- Daylight Saving Time Indicator
  Dewpoint,                               !- Humidity Indicating Type
  ,                                       !- Humidity Indicating Day Schedule Name
  DefaultMultipliers,                     !- Dry-Bulb Temperature Range Modifier Type
  ,                                       !- Dry-Bulb Temperature Range Modifier Schedule Name
  ASHRAETau,                              !- Solar Model Indicator
  ,                                       !- Beam Solar Day Schedule Name
  ,                                       !- Diffuse Solar Day Schedule Name
  0.364,                                  !- ASHRAE Taub {dimensionless}
  2.504;                                  !- ASHRAE Taud {dimensionless}

OS:SizingPeriod:DesignDay,
  {d6832985-e5df-482e-a905-ff02262aca06}, !- Handle
  RED-BLUFF-MUNICIPAL-ARPT JUN Clg 0.4% Condns DB=>MCWB, !- Name
  41.2,                                   !- Maximum Dry-Bulb Temperature {C}
  15.7,                                   !- Daily Dry-Bulb Temperature Range {deltaC}
  19.4,                                   !- Humidity Indicating Conditions at Maximum Dry-Bulb
  100058,                                 !- Barometric Pressure {Pa}
  2.5,                                    !- Wind Speed {m/s}
  0,                                      !- Wind Direction {deg}
  0,                                      !- Sky Clearness
  0,                                      !- Rain Indicator
  0,                                      !- Snow Indicator
  21,                                     !- Day of Month
  6,                                      !- Month
  SummerDesignDay,                        !- Day Type
  0,                                      !- Daylight Saving Time Indicator
  Wetbulb,                                !- Humidity Indicating Type
  ,                                       !- Humidity Indicating Day Schedule Name
  DefaultMultipliers,                     !- Dry-Bulb Temperature Range Modifier Type
  ,                                       !- Dry-Bulb Temperature Range Modifier Schedule Name
  ASHRAETau,                              !- Solar Model Indicator
  ,                                       !- Beam Solar Day Schedule Name
  ,                                       !- Diffuse Solar Day Schedule Name
  0.349,                                  !- ASHRAE Taub {dimensionless}
  2.569;                                  !- ASHRAE Taud {dimensionless}

OS:SizingPeriod:DesignDay,
  {608a7dc2-e35d-4018-a613-54ed4462e444}, !- Handle
  RED-BLUFF-MUNICIPAL-ARPT JUL Clg 0.4% Condns DB=>MCWB, !- Name
  44,                                     !- Maximum Dry-Bulb Temperature {C}
  16.9,                                   !- Daily Dry-Bulb Temperature Range {deltaC}
  21.3,                                   !- Humidity Indicating Conditions at Maximum Dry-Bulb
  100058,                                 !- Barometric Pressure {Pa}
  2.7,                                    !- Wind Speed {m/s}
  180,                                    !- Wind Direction {deg}
  0,                                      !- Sky Clearness
  0,                                      !- Rain Indicator
  0,                                      !- Snow Indicator
  21,                                     !- Day of Month
  7,                                      !- Month
  SummerDesignDay,                        !- Day Type
  0,                                      !- Daylight Saving Time Indicator
  Wetbulb,                                !- Humidity Indicating Type
  ,                                       !- Humidity Indicating Day Schedule Name
  DefaultMultipliers,                     !- Dry-Bulb Temperature Range Modifier Type
  ,                                       !- Dry-Bulb Temperature Range Modifier Schedule Name
  ASHRAETau,                              !- Solar Model Indicator
  ,                                       !- Beam Solar Day Schedule Name
  ,                                       !- Diffuse Solar Day Schedule Name
  0.364,                                  !- ASHRAE Taub {dimensionless}
  2.504;                                  !- ASHRAE Taud {dimensionless}

OS:SizingPeriod:DesignDay,
  {83473d5c-9b69-4812-8f0d-2706bd46704d}, !- Handle
  RED-BLUFF-MUNICIPAL-ARPT AUG Clg 0.4% Condns DB=>MCWB, !- Name
  42,                                     !- Maximum Dry-Bulb Temperature {C}
  16.4,                                   !- Daily Dry-Bulb Temperature Range {deltaC}
  22.6,                                   !- Humidity Indicating Conditions at Maximum Dry-Bulb
  100058,                                 !- Barometric Pressure {Pa}
  3.4,                                    !- Wind Speed {m/s}
  180,                                    !- Wind Direction {deg}
  0,                                      !- Sky Clearness
  0,                                      !- Rain Indicator
  0,                                      !- Snow Indicator
  21,                                     !- Day of Month
  8,                                      !- Month
  SummerDesignDay,                        !- Day Type
  0,                                      !- Daylight Saving Time Indicator
  Wetbulb,                                !- Humidity Indicating Type
  ,                                       !- Humidity Indicating Day Schedule Name
  DefaultMultipliers,                     !- Dry-Bulb Temperature Range Modifier Type
  ,                                       !- Dry-Bulb Temperature Range Modifier Schedule Name
  ASHRAETau,                              !- Solar Model Indicator
  ,                                       !- Beam Solar Day Schedule Name
  ,                                       !- Diffuse Solar Day Schedule Name
  0.368,                                  !- ASHRAE Taub {dimensionless}
  2.463;                                  !- ASHRAE Taud {dimensionless}

OS:SizingPeriod:DesignDay,
  {ae3eae5f-2154-4e7c-a82a-dce117d4670a}, !- Handle
  RED-BLUFF-MUNICIPAL-ARPT SEP Clg 0.4% Condns DB=>MCWB, !- Name
  39.5,                                   !- Maximum Dry-Bulb Temperature {C}
  17.7,                                   !- Daily Dry-Bulb Temperature Range {deltaC}
  16.9,                                   !- Humidity Indicating Conditions at Maximum Dry-Bulb
  100058,                                 !- Barometric Pressure {Pa}
  0,                                      !- Wind Speed {m/s}
  180,                                    !- Wind Direction {deg}
  0,                                      !- Sky Clearness
  0,                                      !- Rain Indicator
  0,                                      !- Snow Indicator
  21,                                     !- Day of Month
  9,                                      !- Month
  SummerDesignDay,                        !- Day Type
  0,                                      !- Daylight Saving Time Indicator
  Wetbulb,                                !- Humidity Indicating Type
  ,                                       !- Humidity Indicating Day Schedule Name
  DefaultMultipliers,                     !- Dry-Bulb Temperature Range Modifier Type
  ,                                       !- Dry-Bulb Temperature Range Modifier Schedule Name
  ASHRAETau,                              !- Solar Model Indicator
  ,                                       !- Beam Solar Day Schedule Name
  ,                                       !- Diffuse Solar Day Schedule Name
  0.358,                                  !- ASHRAE Taub {dimensionless}
  2.489;                                  !- ASHRAE Taud {dimensionless}

OS:SizingPeriod:DesignDay,
  {1bd6e2ca-ffb8-49d3-b350-e39ca3bc4d4a}, !- Handle
  RED-BLUFF-MUNICIPAL-ARPT OCT Clg 0.4% Condns DB=>MCWB, !- Name
  35,                                     !- Maximum Dry-Bulb Temperature {C}
  14.8,                                   !- Daily Dry-Bulb Temperature Range {deltaC}
  17.7,                                   !- Humidity Indicating Conditions at Maximum Dry-Bulb
  100058,                                 !- Barometric Pressure {Pa}
  4.6,                                    !- Wind Speed {m/s}
  112,                                    !- Wind Direction {deg}
  0,                                      !- Sky Clearness
  0,                                      !- Rain Indicator
  0,                                      !- Snow Indicator
  21,                                     !- Day of Month
  10,                                     !- Month
  SummerDesignDay,                        !- Day Type
  0,                                      !- Daylight Saving Time Indicator
  Wetbulb,                                !- Humidity Indicating Type
  ,                                       !- Humidity Indicating Day Schedule Name
  DefaultMultipliers,                     !- Dry-Bulb Temperature Range Modifier Type
  ,                                       !- Dry-Bulb Temperature Range Modifier Schedule Name
  ASHRAETau,                              !- Solar Model Indicator
  ,                                       !- Beam Solar Day Schedule Name
  ,                                       !- Diffuse Solar Day Schedule Name
  0.332,                                  !- ASHRAE Taub {dimensionless}
  2.567;                                  !- ASHRAE Taud {dimensionless}

OS:SizingPeriod:DesignDay,
  {a8e15044-9c15-4c7d-aac8-85ee7f9af4a9}, !- Handle
  RED-BLUFF-MUNICIPAL-ARPT NOV Clg 0.4% Condns DB=>MCWB, !- Name
  26.7,                                   !- Maximum Dry-Bulb Temperature {C}
  10.8,                                   !- Daily Dry-Bulb Temperature Range {deltaC}
  15.1,                                   !- Humidity Indicating Conditions at Maximum Dry-Bulb
  100058,                                 !- Barometric Pressure {Pa}
  1.9,                                    !- Wind Speed {m/s}
  0,                                      !- Wind Direction {deg}
  0,                                      !- Sky Clearness
  0,                                      !- Rain Indicator
  0,                                      !- Snow Indicator
  21,                                     !- Day of Month
  11,                                     !- Month
  SummerDesignDay,                        !- Day Type
  0,                                      !- Daylight Saving Time Indicator
  Wetbulb,                                !- Humidity Indicating Type
  ,                                       !- Humidity Indicating Day Schedule Name
  DefaultMultipliers,                     !- Dry-Bulb Temperature Range Modifier Type
  ,                                       !- Dry-Bulb Temperature Range Modifier Schedule Name
  ASHRAETau,                              !- Solar Model Indicator
  ,                                       !- Beam Solar Day Schedule Name
  ,                                       !- Diffuse Solar Day Schedule Name
  0.312,                                  !- ASHRAE Taub {dimensionless}
  2.648;                                  !- ASHRAE Taud {dimensionless}

OS:WeatherFile,
  {c15e415e-f853-4807-8e52-653f06cc4836}, !- Handle
  RED-BLUFF-MUNI-AP,                      !- City
  -,                                      !- State Province Region
  USA,                                    !- Country
  Custom-725910,                          !- Data Source
  725910,                                 !- WMO Number
  40.15,                                  !- Latitude {deg}
  -122.25,                                !- Longitude {deg}
  -8,                                     !- Time Zone {hr}
  106,                                    !- Elevation {m}
  file:///C:/Users/agoyal/Documents/CBECC-Com 2019 Data/EPW/RED-BLUFF_725910_CZ2010.epw, !- Url
  820A103C;                               !- Checksum

OS:Sizing:Parameters,
  {01ccee94-a504-49d1-83b2-56b4df8218a2}, !- Handle
  1,                                      !- Heating Sizing Factor
  1;                                      !- Cooling Sizing Factor

OS:Material,
  {2465a1ac-1cdf-4b52-9186-f0718756ece6}, !- Handle
  Gypsum Board - 1/2 in.,                 !- Name
  Smooth,                                 !- Roughness
  0.0127,                                 !- Thickness {m}
  0.158656446866265,                      !- Conductivity {W/m-K}
  640.738534958406,                       !- Density {kg/m3}
  1130.436,                               !- Specific Heat {J/kg-K}
  0.9,                                    !- Thermal Absorptance
  0.7,                                    !- Solar Absorptance
  0.8;                                    !- Visible Absorptance

OS:Material,
  {ade6d295-f1f1-48a7-9bb2-390271bb80d6}, !- Handle
  Gypsum Board - 5/8 in.,                 !- Name
  MediumRough,                            !- Roughness
  0.016002,                               !- Thickness {m}
  0.158656446866265,                      !- Conductivity {W/m-K}
  640.738534958406,                       !- Density {kg/m3}
  1130.436,                               !- Specific Heat {J/kg-K}
  0.9,                                    !- Thermal Absorptance
  0.7,                                    !- Solar Absorptance
  0.8;                                    !- Visible Absorptance

OS:Material,
  {dede8891-81be-4728-90aa-b3721a37e6e0}, !- Handle
  Stucco - 7/8 in.,                       !- Name
  MediumRough,                            !- Roughness
  0.022352,                               !- Thickness {m}
  0.700947539880412,                      !- Conductivity {W/m-K}
  1855.09824333832,                       !- Density {kg/m3}
  837.36,                                 !- Specific Heat {J/kg-K}
  0.9,                                    !- Thermal Absorptance
  0.7,                                    !- Solar Absorptance
  0.8;                                    !- Visible Absorptance

OS:Material,
  {2b08ee11-4b11-4ade-9a2c-d0fa12877cb6}, !- Handle
  Carpet - 3/4 in.,                       !- Name
  Smooth,                                 !- Roughness
  0.01905,                                !- Thickness {m}
  0.0455183217255675,                     !- Conductivity {W/m-K}
  288.332340731283,                       !- Density {kg/m3}
  1381.644,                               !- Specific Heat {J/kg-K}
  0.9,                                    !- Thermal Absorptance
  0.7,                                    !- Solar Absorptance
  0.8;                                    !- Visible Absorptance

OS:Material,
  {6653e17d-57fe-4258-af61-05569b2b3021}, !- Handle
  Plywood - 5/8 in.,                      !- Name
  Smooth,                                 !- Roughness
  0.016002,                               !- Thickness {m}
  0.115440002246971,                      !- Conductivity {W/m-K}
  480.553901218804,                       !- Density {kg/m3}
  1884.06;                                !- Specific Heat {J/kg-K}

OS:Material,
  {96e9ae81-1b8f-437d-b648-e24e9ae8dce4}, !- Handle
  Concrete - 140 lb/ft3 - 4 in.,          !- Name
  Smooth,                                 !- Roughness
  0.1016,                                 !- Thickness {m}
  1.95140333633374,                       !- Conductivity {W/m-K}
  2239.06081041215,                       !- Density {kg/m3}
  921.096;                                !- Specific Heat {J/kg-K}

OS:Material,
  {c0762c5c-359d-408d-b9ac-cd58eae56ad9}, !- Handle
  Compliance Insulation R0.20,            !- Name
  Smooth,                                 !- Roughness
  0.000810768,                            !- Thickness {m}
  0.0230187710627394,                     !- Conductivity {W/m-K}
  16.0184633739601,                       !- Density {kg/m3}
  1130.436;                               !- Specific Heat {J/kg-K}

OS:Material,
  {b8ca5d8f-a519-4fab-99e0-fd6271a265cc}, !- Handle
  Compliance Insulation R0.10,            !- Name
  Smooth,                                 !- Roughness
  0.000405384,                            !- Thickness {m}
  0.0230187710627394,                     !- Conductivity {W/m-K}
  16.0184633739601,                       !- Density {kg/m3}
  1130.436;                               !- Specific Heat {J/kg-K}

OS:Material,
  {c12a0547-10ed-415f-a5eb-c570445437d0}, !- Handle
  Concrete - Solid Grout - 115 lb/ft3 - 8 in., !- Name
  Smooth,                                 !- Roughness
  0.2032,                                 !- Thickness {m}
  1.31570449337553,                       !- Conductivity {W/m-K}
  1858.14175137938,                       !- Density {kg/m3}
  837.36;                                 !- Specific Heat {J/kg-K}

OS:Material,
  {785462b5-6d4b-438e-b252-bec7df7f8591}, !- Handle
  Compliance Insulation R13.99,           !- Name
  Smooth,                                 !- Roughness
  0.05671312,                             !- Thickness {m}
  0.0230187710627394,                     !- Conductivity {W/m-K}
  16.0184633739601,                       !- Density {kg/m3}
  1130.436;                               !- Specific Heat {J/kg-K}

OS:Material,
  {fde2554c-9af6-4548-a62d-38980e827f63}, !- Handle
  Air - Metal Wall Framing - 16 or 24 in. OC, !- Name
  Smooth,                                 !- Roughness
  0.1397,                                 !- Thickness {m}
  1.22016793979183,                       !- Conductivity {W/m-K}
  1.28147706991681,                       !- Density {kg/m3}
  1004.832;                               !- Specific Heat {J/kg-K}

OS:Material,
  {4124ac95-65ab-44f5-89bd-7c92f6fd0628}, !- Handle
  Compliance Insulation R10.06,           !- Name
  Smooth,                                 !- Roughness
  0.040781732,                            !- Thickness {m}
  0.0230187710627394,                     !- Conductivity {W/m-K}
  16.0184633739601,                       !- Density {kg/m3}
  1130.436;                               !- Specific Heat {J/kg-K}

OS:Material,
  {534a96e8-adac-4fa8-b529-62e666686e09}, !- Handle
  Compliance Insulation R2.00,            !- Name
  Smooth,                                 !- Roughness
  0.00810768,                             !- Thickness {m}
  0.0230187710627394,                     !- Conductivity {W/m-K}
  16.0184633739601,                       !- Density {kg/m3}
  1130.436;                               !- Specific Heat {J/kg-K}

OS:Material,
  {9fc0272e-0ba6-4e2e-a096-bbcca8facf1e}, !- Handle
  Metal Standing Seam - 1/16 in.,         !- Name
  MediumRough,                            !- Roughness
  0.0015875,                              !- Thickness {m}
  2.21534037295537,                       !- Conductivity {W/m-K}
  7820.53418843482,                       !- Density {kg/m3}
  502.416,                                !- Specific Heat {J/kg-K}
  0.85,                                   !- Thermal Absorptance
  0.37,                                   !- Solar Absorptance
  0.85;                                   !- Visible Absorptance

OS:Material,
  {dbd298ba-1326-4ffb-823c-64aeb6ff491e}, !- Handle
  Compliance Insulation R34.93,           !- Name
  Smooth,                                 !- Roughness
  0.141600682,                            !- Thickness {m}
  0.0230187710627394,                     !- Conductivity {W/m-K}
  16.0184633739601,                       !- Density {kg/m3}
  1130.436,                               !- Specific Heat {J/kg-K}
  0.9,                                    !- Thermal Absorptance
  0.7,                                    !- Solar Absorptance
  0.8;                                    !- Visible Absorptance

OS:Material,
  {aa8776ef-8206-468a-8939-35be573abbee}, !- Handle
  Compliance Insulation R28.63,           !- Name
  Smooth,                                 !- Roughness
  0.11606149,                             !- Thickness {m}
  0.0230187710627394,                     !- Conductivity {W/m-K}
  16.0184633739601,                       !- Density {kg/m3}
  1130.436,                               !- Specific Heat {J/kg-K}
  0.9,                                    !- Thermal Absorptance
  0.7,                                    !- Solar Absorptance
  0.8;                                    !- Visible Absorptance

OS:Material,
  {ace5a723-3284-4d5b-a6d2-68fac8ae2673}, !- Handle
  Compliance Insulation R21.39,           !- Name
  MediumRough,                            !- Roughness
  0.086711536,                            !- Thickness {m}
  0.0230187710627394,                     !- Conductivity {W/m-K}
  16.0184633739601,                       !- Density {kg/m3}
  1130.436,                               !- Specific Heat {J/kg-K}
  0.9,                                    !- Thermal Absorptance
  0.7,                                    !- Solar Absorptance
  0.8;                                    !- Visible Absorptance

OS:Material,
  {a63b3fb8-9eeb-49ef-8f29-e1fbeb4fc612}, !- Handle
  Metal Deck - 1/16 in.,                  !- Name
  MediumRough,                            !- Roughness
  0.0015875,                              !- Thickness {m}
  45.3452482589303,                       !- Conductivity {W/m-K}
  7820.53418843482,                       !- Density {kg/m3}
  502.416,                                !- Specific Heat {J/kg-K}
  0.9,                                    !- Thermal Absorptance
  0.7,                                    !- Solar Absorptance
  0.8;                                    !- Visible Absorptance

OS:Construction,
  {0ef02fae-2f6d-4998-ba4d-7b6e48fb1956}, !- Handle
  MetalFrameWallU062,                     !- Name
  ,                                       !- Surface Rendering Name
  {dede8891-81be-4728-90aa-b3721a37e6e0}, !- Layer 1
  {785462b5-6d4b-438e-b252-bec7df7f8591}, !- Layer 2
  {fde2554c-9af6-4548-a62d-38980e827f63}, !- Layer 3
  {2465a1ac-1cdf-4b52-9186-f0718756ece6}; !- Layer 4

OS:Construction,
  {0e0b1fb3-815d-47f3-8f7f-71637d271dc5}, !- Handle
  MetalFrameWallU069,                     !- Name
  ,                                       !- Surface Rendering Name
  {8b240d02-8c9d-4f12-85e7-e6fa3ef2e68e}, !- Layer 1
  {4124ac95-65ab-44f5-89bd-7c92f6fd0628}, !- Layer 2
  {534a96e8-adac-4fa8-b529-62e666686e09}, !- Layer 3
  {c0762c5c-359d-408d-b9ac-cd58eae56ad9}, !- Layer 4
  {b8ca5d8f-a519-4fab-99e0-fd6271a265cc}, !- Layer 5
  {1b9731e3-a752-4141-a147-4578ebe4c2b0}, !- Layer 6
  {996e3735-6122-41ee-8368-3a1a4e9eaec9}; !- Layer 7

OS:Material,
  {8b240d02-8c9d-4f12-85e7-e6fa3ef2e68e}, !- Handle
  Stucco - 7/8 in. 1,                     !- Name
  MediumRough,                            !- Roughness
  0.022352,                               !- Thickness {m}
  0.700947539880412,                      !- Conductivity {W/m-K}
  1855.09824333832,                       !- Density {kg/m3}
  837.36,                                 !- Specific Heat {J/kg-K}
  0.9,                                    !- Thermal Absorptance
  0.7,                                    !- Solar Absorptance
  0.8;                                    !- Visible Absorptance

OS:Material,
  {1b9731e3-a752-4141-a147-4578ebe4c2b0}, !- Handle
  Air - Metal Wall Framing - 16 or 24 in. OC 1, !- Name
  Smooth,                                 !- Roughness
  0.1397,                                 !- Thickness {m}
  1.22016793979183,                       !- Conductivity {W/m-K}
  1.28147706991681,                       !- Density {kg/m3}
  1004.832;                               !- Specific Heat {J/kg-K}

OS:Material,
  {996e3735-6122-41ee-8368-3a1a4e9eaec9}, !- Handle
  Gypsum Board - 1/2 in. 1,               !- Name
  Smooth,                                 !- Roughness
  0.0127,                                 !- Thickness {m}
  0.158656446866265,                      !- Conductivity {W/m-K}
  640.738534958406,                       !- Density {kg/m3}
  1130.436,                               !- Specific Heat {J/kg-K}
  0.9,                                    !- Thermal Absorptance
  0.7,                                    !- Solar Absorptance
  0.8;                                    !- Visible Absorptance

OS:Construction,
  {4e3ff01c-b764-4f93-9340-4e76eb002d26}, !- Handle
  MetalFrameWallInterior,                 !- Name
  ,                                       !- Surface Rendering Name
  {ade6d295-f1f1-48a7-9bb2-390271bb80d6}, !- Layer 1
  {94371d27-47f6-464f-bd0f-e6b688082d54}, !- Layer 2
  {ade6d295-f1f1-48a7-9bb2-390271bb80d6}; !- Layer 3

OS:Material,
  {94371d27-47f6-464f-bd0f-e6b688082d54}, !- Handle
  Air - Metal Wall Framing - 16 or 24 in. OC 2, !- Name
  Smooth,                                 !- Roughness