
OS:Version,
  {b1b05d53-a535-4952-83df-94d61d753f29}, !- Handle
  2.7.2;                                  !- Version Identifier

OS:SimulationControl,
  {c554eaea-0dc3-4526-b4d8-112e9aa56d53}, !- Handle
  ,                                       !- Do Zone Sizing Calculation
  ,                                       !- Do System Sizing Calculation
  ,                                       !- Do Plant Sizing Calculation
  No,                                     !- Run Simulation for Sizing Periods
  Yes,                                    !- Run Simulation for Weather File Run Periods
  ,                                       !- Loads Convergence Tolerance Value
  ,                                       !- Temperature Convergence Tolerance Value {deltaC}
  FullExterior,                           !- Solar Distribution
  50;                                     !- Maximum Number of Warmup Days

OS:YearDescription,
  {4f5fbfbe-1b52-44e1-9d15-a0d33cd6726d}, !- Handle
  2009,                                   !- Calendar Year
  ,                                       !- Day of Week for Start Day
  ;                                       !- Is Leap Year

OS:RunPeriod,
  {a34adbe2-8683-4419-84a1-3dd2649e53a7}, !- Handle
  TORRANCE_722955_CZ2010,                 !- Name
  1,                                      !- Begin Month
  1,                                      !- Begin Day of Month
  12,                                     !- End Month
  31,                                     !- End Day of Month
  No,                                     !- Use Weather File Holidays and Special Days
  No,                                     !- Use Weather File Daylight Saving Period
  Yes,                                    !- Apply Weekend Holiday Rule
  ,                                       !- Use Weather File Rain Indicators
  ,                                       !- Use Weather File Snow Indicators
  ;                                       !- Number of Times Runperiod to be Repeated

OS:Site,
  {95cd916b-9b8c-4ecc-b3a3-63d9fe5afc81}, !- Handle
  TORRANCE-MUNICIPAL Design_Conditions,   !- Name
  33.78,                                  !- Latitude {deg}
  -118.32,                                !- Longitude {deg}
  -8,                                     !- Time Zone {hr}
  27.1272,                                !- Elevation {m}
  ;                                       !- Terrain

OS:SizingPeriod:DesignDay,
  {93403d8e-c76d-4c5d-aed2-48c2ae1e3774}, !- Handle
  TORRANCE-MUNICIPAL Ann Htg 99.6% Condns DB, !- Name
  3,                                      !- Maximum Dry-Bulb Temperature {C}
  0,                                      !- Daily Dry-Bulb Temperature Range {deltaC}
  3,                                      !- Humidity Indicating Conditions at Maximum Dry-Bulb
  101001,                                 !- Barometric Pressure {Pa}
  1.9,                                    !- Wind Speed {m/s}
  270,                                    !- Wind Direction {deg}
  0,                                      !- Sky Clearness
  0,                                      !- Rain Indicator
  0,                                      !- Snow Indicator
  21,                                     !- Day of Month
  1,                                      !- Month
  WinterDesignDay,                        !- Day Type
  0,                                      !- Daylight Saving Time Indicator
  Wetbulb,                                !- Humidity Indicating Type
  ,                                       !- Humidity Indicating Day Schedule Name
  DefaultMultipliers,                     !- Dry-Bulb Temperature Range Modifier Type
  ,                                       !- Dry-Bulb Temperature Range Modifier Schedule Name
  ASHRAEClearSky;                         !- Solar Model Indicator

OS:SizingPeriod:DesignDay,
  {7ad55177-7e8c-43f1-9148-2bf1eac53ed8}, !- Handle
  TORRANCE-MUNICIPAL Ann Clg 0.4% Condns DB=>MCWB, !- Name
  30.6,                                   !- Maximum Dry-Bulb Temperature {C}
  7,                                      !- Daily Dry-Bulb Temperature Range {deltaC}
  18.8,                                   !- Humidity Indicating Conditions at Maximum Dry-Bulb
  101001,                                 !- Barometric Pressure {Pa}
  4.5,                                    !- Wind Speed {m/s}
  292,                                    !- Wind Direction {deg}
  0,                                      !- Sky Clearness
  0,                                      !- Rain Indicator
  0,                                      !- Snow Indicator
  21,                                     !- Day of Month
  8,                                      !- Month
  SummerDesignDay,                        !- Day Type
  0,                                      !- Daylight Saving Time Indicator
  Wetbulb,                                !- Humidity Indicating Type
  ,                                       !- Humidity Indicating Day Schedule Name
  DefaultMultipliers,                     !- Dry-Bulb Temperature Range Modifier Type
  ,                                       !- Dry-Bulb Temperature Range Modifier Schedule Name
  ASHRAETau,                              !- Solar Model Indicator
  ,                                       !- Beam Solar Day Schedule Name
  ,                                       !- Diffuse Solar Day Schedule Name
  0.445,                                  !- ASHRAE Taub {dimensionless}
  2.094;                                  !- ASHRAE Taud {dimensionless}

OS:SizingPeriod:DesignDay,
  {ca79ead9-2290-4c78-b6c7-55815e69db89}, !- Handle
  TORRANCE-MUNICIPAL Ann Clg 0.4% Condns DP=>MCDB, !- Name
  23.4,                                   !- Maximum Dry-Bulb Temperature {C}
  7,                                      !- Daily Dry-Bulb Temperature Range {deltaC}
  20.9,                                   !- Humidity Indicating Conditions at Maximum Dry-Bulb
  101001,                                 !- Barometric Pressure {Pa}
  4.5,                                    !- Wind Speed {m/s}
  292,                                    !- Wind Direction {deg}
  0,                                      !- Sky Clearness
  0,                                      !- Rain Indicator
  0,                                      !- Snow Indicator
  21,                                     !- Day of Month
  8,                                      !- Month
  SummerDesignDay,                        !- Day Type
  0,                                      !- Daylight Saving Time Indicator
  Dewpoint,                               !- Humidity Indicating Type
  ,                                       !- Humidity Indicating Day Schedule Name
  DefaultMultipliers,                     !- Dry-Bulb Temperature Range Modifier Type
  ,                                       !- Dry-Bulb Temperature Range Modifier Schedule Name
  ASHRAETau,                              !- Solar Model Indicator
  ,                                       !- Beam Solar Day Schedule Name
  ,                                       !- Diffuse Solar Day Schedule Name
  0.445,                                  !- ASHRAE Taub {dimensionless}
  2.094;                                  !- ASHRAE Taud {dimensionless}

OS:SizingPeriod:DesignDay,
  {08b5109d-ff89-4e29-92c4-88c6843497e9}, !- Handle
  TORRANCE-MUNICIPAL JUN Clg 0.4% Condns DB=>MCWB, !- Name
  30,                                     !- Maximum Dry-Bulb Temperature {C}
  7.3,                                    !- Daily Dry-Bulb Temperature Range {deltaC}
  19.3,                                   !- Humidity Indicating Conditions at Maximum Dry-Bulb
  101001,                                 !- Barometric Pressure {Pa}
  6.1,                                    !- Wind Speed {m/s}
  292,                                    !- Wind Direction {deg}
  0,                                      !- Sky Clearness
  0,                                      !- Rain Indicator
  0,                                      !- Snow Indicator
  21,                                     !- Day of Month
  6,                                      !- Month
  SummerDesignDay,                        !- Day Type
  0,                                      !- Daylight Saving Time Indicator
  Wetbulb,                                !- Humidity Indicating Type
  ,                                       !- Humidity Indicating Day Schedule Name
  DefaultMultipliers,                     !- Dry-Bulb Temperature Range Modifier Type
  ,                                       !- Dry-Bulb Temperature Range Modifier Schedule Name
  ASHRAETau,                              !- Solar Model Indicator
  ,                                       !- Beam Solar Day Schedule Name
  ,                                       !- Diffuse Solar Day Schedule Name
  0.391,                                  !- ASHRAE Taub {dimensionless}
  2.287;                                  !- ASHRAE Taud {dimensionless}

OS:SizingPeriod:DesignDay,
  {f0aed495-a898-4627-80b1-369c547b7a22}, !- Handle
  TORRANCE-MUNICIPAL JUL Clg 0.4% Condns DB=>MCWB, !- Name
  30,                                     !- Maximum Dry-Bulb Temperature {C}
  6.5,                                    !- Daily Dry-Bulb Temperature Range {deltaC}
  23.8,                                   !- Humidity Indicating Conditions at Maximum Dry-Bulb
  101001,                                 !- Barometric Pressure {Pa}
  5,                                      !- Wind Speed {m/s}
  292,                                    !- Wind Direction {deg}
  0,                                      !- Sky Clearness
  0,                                      !- Rain Indicator
  0,                                      !- Snow Indicator
  21,                                     !- Day of Month
  7,                                      !- Month
  SummerDesignDay,                        !- Day Type
  0,                                      !- Daylight Saving Time Indicator
  Wetbulb,                                !- Humidity Indicating Type
  ,                                       !- Humidity Indicating Day Schedule Name
  DefaultMultipliers,                     !- Dry-Bulb Temperature Range Modifier Type
  ,                                       !- Dry-Bulb Temperature Range Modifier Schedule Name
  ASHRAETau,                              !- Solar Model Indicator
  ,                                       !- Beam Solar Day Schedule Name
  ,                                       !- Diffuse Solar Day Schedule Name
  0.457,                                  !- ASHRAE Taub {dimensionless}
  2.037;                                  !- ASHRAE Taud {dimensionless}

OS:SizingPeriod:DesignDay,
  {378721e8-d9c4-4f1d-94cd-52e3c13bf8ea}, !- Handle
  TORRANCE-MUNICIPAL AUG Clg 0.4% Condns DB=>MCWB, !- Name
  30,                                     !- Maximum Dry-Bulb Temperature {C}
  7,                                      !- Daily Dry-Bulb Temperature Range {deltaC}
  19.1,                                   !- Humidity Indicating Conditions at Maximum Dry-Bulb
  101001,                                 !- Barometric Pressure {Pa}
  5.3,                                    !- Wind Speed {m/s}
  292,                                    !- Wind Direction {deg}
  0,                                      !- Sky Clearness
  0,                                      !- Rain Indicator
  0,                                      !- Snow Indicator
  21,                                     !- Day of Month
  8,                                      !- Month
  SummerDesignDay,                        !- Day Type
  0,                                      !- Daylight Saving Time Indicator
  Wetbulb,                                !- Humidity Indicating Type
  ,                                       !- Humidity Indicating Day Schedule Name
  DefaultMultipliers,                     !- Dry-Bulb Temperature Range Modifier Type
  ,                                       !- Dry-Bulb Temperature Range Modifier Schedule Name
  ASHRAETau,                              !- Solar Model Indicator
  ,                                       !- Beam Solar Day Schedule Name
  ,                                       !- Diffuse Solar Day Schedule Name
  0.445,                                  !- ASHRAE Taub {dimensionless}
  2.094;                                  !- ASHRAE Taud {dimensionless}

OS:SizingPeriod:DesignDay,
  {400ebb26-0864-494a-99ac-a03806e2bbea}, !- Handle
  TORRANCE-MUNICIPAL SEP Clg 0.4% Condns DB=>MCWB, !- Name
  33,                                     !- Maximum Dry-Bulb Temperature {C}
  7.7,                                    !- Daily Dry-Bulb Temperature Range {deltaC}
  17.8,                                   !- Humidity Indicating Conditions at Maximum Dry-Bulb
  101001,                                 !- Barometric Pressure {Pa}
  3.1,                                    !- Wind Speed {m/s}
  292,                                    !- Wind Direction {deg}
  0,                                      !- Sky Clearness
  0,                                      !- Rain Indicator
  0,                                      !- Snow Indicator
  21,                                     !- Day of Month
  9,                                      !- Month
  SummerDesignDay,                        !- Day Type
  0,                                      !- Daylight Saving Time Indicator
  Wetbulb,                                !- Humidity Indicating Type
  ,                                       !- Humidity Indicating Day Schedule Name
  DefaultMultipliers,                     !- Dry-Bulb Temperature Range Modifier Type
  ,                                       !- Dry-Bulb Temperature Range Modifier Schedule Name
  ASHRAETau,                              !- Solar Model Indicator
  ,                                       !- Beam Solar Day Schedule Name
  ,                                       !- Diffuse Solar Day Schedule Name
  0.39,                                   !- ASHRAE Taub {dimensionless}
  2.327;                                  !- ASHRAE Taud {dimensionless}

OS:SizingPeriod:DesignDay,
  {952def3f-3a6e-4791-bd29-7e07351e8910}, !- Handle
  TORRANCE-MUNICIPAL OCT Clg 0.4% Condns DB=>MCWB, !- Name
  32.9,                                   !- Maximum Dry-Bulb Temperature {C}
  11.7,                                   !- Daily Dry-Bulb Temperature Range {deltaC}
  17.7,                                   !- Humidity Indicating Conditions at Maximum Dry-Bulb
  101001,                                 !- Barometric Pressure {Pa}
  1.2,                                    !- Wind Speed {m/s}
  270,                                    !- Wind Direction {deg}
  0,                                      !- Sky Clearness
  0,                                      !- Rain Indicator
  0,                                      !- Snow Indicator
  21,                                     !- Day of Month
  10,                                     !- Month
  SummerDesignDay,                        !- Day Type
  0,                                      !- Daylight Saving Time Indicator
  Wetbulb,                                !- Humidity Indicating Type
  ,                                       !- Humidity Indicating Day Schedule Name
  DefaultMultipliers,                     !- Dry-Bulb Temperature Range Modifier Type
  ,                                       !- Dry-Bulb Temperature Range Modifier Schedule Name
  ASHRAETau,                              !- Solar Model Indicator
  ,                                       !- Beam Solar Day Schedule Name
  ,                                       !- Diffuse Solar Day Schedule Name
  0.385,                                  !- ASHRAE Taub {dimensionless}
  2.25;                                   !- ASHRAE Taud {dimensionless}

OS:SizingPeriod:DesignDay,
  {f05bd5b9-2cb9-4901-b61a-b8c8f3ecce7f}, !- Handle
  TORRANCE-MUNICIPAL NOV Clg 0.4% Condns DB=>MCWB, !- Name
  30.4,                                   !- Maximum Dry-Bulb Temperature {C}
  0,                                      !- Daily Dry-Bulb Temperature Range {deltaC}
  14.8,                                   !- Humidity Indicating Conditions at Maximum Dry-Bulb
  101001,                                 !- Barometric Pressure {Pa}
  2.3,                                    !- Wind Speed {m/s}
  202,                                    !- Wind Direction {deg}
  0,                                      !- Sky Clearness
  0,                                      !- Rain Indicator
  0,                                      !- Snow Indicator
  21,                                     !- Day of Month
  11,                                     !- Month
  SummerDesignDay,                        !- Day Type
  0,                                      !- Daylight Saving Time Indicator
  Wetbulb,                                !- Humidity Indicating Type
  ,                                       !- Humidity Indicating Day Schedule Name
  DefaultMultipliers,                     !- Dry-Bulb Temperature Range Modifier Type
  ,                                       !- Dry-Bulb Temperature Range Modifier Schedule Name
  ASHRAETau,                              !- Solar Model Indicator
  ,                                       !- Beam Solar Day Schedule Name
  ,                                       !- Diffuse Solar Day Schedule Name
  0.338,                                  !- ASHRAE Taub {dimensionless}
  2.473;                                  !- ASHRAE Taud {dimensionless}

OS:WeatherFile,
  {15ba65d9-6685-4e53-b627-676a01b5ff65}, !- Handle
  TORRANCE-MUNI-AP,                       !- City
  -,                                      !- State Province Region
  USA,                                    !- Country
  Custom-722955,                          !- Data Source
  722955,                                 !- WMO Number
  33.8,                                   !- Latitude {deg}
  -118.33,                                !- Longitude {deg}
  -8,                                     !- Time Zone {hr}
  27,                                     !- Elevation {m}
  file:///C:/Users/mnakajima/Documents/CBECC-Com 2019 Data/EPW/TORRANCE_722955_CZ2010.epw, !- Url
  4447B3FF;                               !- Checksum

OS:Sizing:Parameters,
  {96393cb2-70e9-48f8-b0ba-68f3fc968433}, !- Handle
  1,                                      !- Heating Sizing Factor
  1;                                      !- Cooling Sizing Factor

OS:Material,
  {e78a1b3c-8652-4f60-853d-88c5e34be326}, !- Handle
  Gypsum Board - 1/2 in.,                 !- Name
  MediumRough,                            !- Roughness
  0.0127,                                 !- Thickness {m}
  0.158656446866265,                      !- Conductivity {W/m-K}
  640.738534958406,                       !- Density {kg/m3}
  1130.436,                               !- Specific Heat {J/kg-K}
  0.9,                                    !- Thermal Absorptance
  0.7,                                    !- Solar Absorptance
  0.8;                                    !- Visible Absorptance

OS:Material,
  {b94d21ed-d245-40fb-9f2b-7a97fcfc68e3}, !- Handle
  Gypsum Board - 5/8 in.,                 !- Name
  Smooth,                                 !- Roughness
  0.016002,                               !- Thickness {m}
  0.158656446866265,                      !- Conductivity {W/m-K}
  640.738534958406,                       !- Density {kg/m3}
  1130.436,                               !- Specific Heat {J/kg-K}
  0.9,                                    !- Thermal Absorptance
  0.7,                                    !- Solar Absorptance
  0.8;                                    !- Visible Absorptance

OS:Material,
  {7e5db9f6-4c30-46d9-9d5d-ba486b1b1878}, !- Handle
  Stucco - 7/8 in.,                       !- Name
  MediumRough,                            !- Roughness
  0.022352,                               !- Thickness {m}
  0.700947539880412,                      !- Conductivity {W/m-K}
  1855.09824333832,                       !- Density {kg/m3}
  837.36,                                 !- Specific Heat {J/kg-K}
  0.9,                                    !- Thermal Absorptance
  0.7,                                    !- Solar Absorptance
  0.8;                                    !- Visible Absorptance

OS:Material,
  {97da046d-2745-4594-8fde-0a86ad05d8fc}, !- Handle
  Carpet - 3/4 in.,                       !- Name
  Smooth,                                 !- Roughness
  0.01905,                                !- Thickness {m}
  0.0455183217255675,                     !- Conductivity {W/m-K}
  288.332340731283,                       !- Density {kg/m3}
  1381.644,                               !- Specific Heat {J/kg-K}
  0.9,                                    !- Thermal Absorptance
  0.7,                                    !- Solar Absorptance
  0.8;                                    !- Visible Absorptance

OS:Material,
  {1db4e2d1-71dc-4f5c-b4d9-38c2eb9d943d}, !- Handle
  Plywood - 5/8 in.,                      !- Name
  Smooth,                                 !- Roughness
  0.016002,                               !- Thickness {m}
  0.115440002246971,                      !- Conductivity {W/m-K}
  480.553901218804,                       !- Density {kg/m3}
  1884.06;                                !- Specific Heat {J/kg-K}

OS:Material,
  {24e8d34f-0cdc-4224-adbb-9534ff4b58fd}, !- Handle
  Compliance Insulation R1.54,            !- Name
  Smooth,                                 !- Roughness
  0.0062429136,                           !- Thickness {m}
  0.0230187710627394,                     !- Conductivity {W/m-K}
  16.0184633739601,                       !- Density {kg/m3}
  1130.436;                               !- Specific Heat {J/kg-K}

OS:Material,
  {73ab816e-5068-4a92-bab6-7396a3844a28}, !- Handle
  Compliance Insulation R1.35,            !- Name
  Smooth,                                 !- Roughness
  0.005472684,                            !- Thickness {m}
  0.0230187710627394,                     !- Conductivity {W/m-K}
  16.0184633739601,                       !- Density {kg/m3}
  1130.436;                               !- Specific Heat {J/kg-K}

OS:Material:NoMass,
  {5cb60bb8-929e-4aaa-abaa-9db5cc38470c}, !- Handle
  WoodFrameWall16inOC R11.25,             !- Name
  Smooth,                                 !- Roughness
  1.26865197459958;                       !- Thermal Resistance {m2-K/W}

OS:Material,
  {062cb5f8-62b3-46ed-ad6d-f8dcf0b14e4c}, !- Handle
  Concrete - 140 lb/ft3 - 10 in.,         !- Name
  Smooth,                                 !- Roughness
  0.254,                                  !- Thickness {m}
  1.95140333633374,                       !- Conductivity {W/m-K}
  2239.06081041215,                       !- Density {kg/m3}
  921.096,                                !- Specific Heat {J/kg-K}
  0.9,                                    !- Thermal Absorptance
  0.7,                                    !- Solar Absorptance
  0.8;                                    !- Visible Absorptance

OS:Material:NoMass,
  {31f551fd-cc16-4fcd-8de6-bcc4be07c39b}, !- Handle
  WoodRoof16OCCavInsR38,                  !- Name
  Smooth,                                 !- Roughness
  4.68171312301043,                       !- Thermal Resistance {m2-K/W}
  0.9,                                    !- Thermal Absorptance
  0.7,                                    !- Solar Absorptance
  0.8;                                    !- Visible Absorptance

OS:Material,
  {f16d5b07-c30c-4d3a-9a88-ea1bcd108128}, !- Handle
  Building Paper - 1/16 in.,              !- Name
  Smooth,                                 !- Roughness
  0.001524,                               !- Thickness {m}
  0.28851346888411,                       !- Conductivity {W/m-K}
  96.1107802437608,                       !- Density {kg/m3}
  1256.04;                                !- Specific Heat {J/kg-K}

OS:Material,
  {f1a69360-57f2-47e5-8f77-e7a8ace5f736}, !- Handle
  Fiberboard sheathing - 1/2 in.,         !- Name
  Smooth,                                 !- Roughness
  0.0127,                                 !- Thickness {m}
  0.0706139743879526,                     !- Conductivity {W/m-K}
  399.820845814045,                       !- Density {kg/m3}
  1297.908;                               !- Specific Heat {J/kg-K}

OS:Material,
  {885f0d61-db1b-4388-aa92-065943c01563}, !- Handle
  Roofing felt - 1/8 in.,                 !- Name
  MediumRough,                            !- Roughness
  0.001524,                               !- Thickness {m}
  1.19714916872909,                       !- Conductivity {W/m-K}
  230.665872585026,                       !- Density {kg/m3}
  1256.04,                                !- Specific Heat {J/kg-K}
  0.85,                                   !- Thermal Absorptance
  0.92,                                   !- Solar Absorptance
  0.85;                                   !- Visible Absorptance

OS:Material:NoMass,
  {874b3d55-3ce1-48b1-be44-3e96e7d59977}, !- Handle
  WoodFloor16inOCCavInsR0,                !- Name
  Smooth,                                 !- Roughness
  0.162021368987722;                      !- Thermal Resistance {m2-K/W}

OS:Material,
  {4460bf59-e07a-4120-9c71-77afdfd0a472}, !- Handle
  Stone - 1 in.,                          !- Name
  MediumRough,                            !- Roughness
  0.0254,                                 !- Thickness {m}
  1.80342552235899,                       !- Conductivity {W/m-K}
  2239.06081041215,                       !- Density {kg/m3}
  921.096,                                !- Specific Heat {J/kg-K}
  0.85,                                   !- Thermal Absorptance
  0.92,                                   !- Solar Absorptance
  0.85;                                   !- Visible Absorptance

OS:Material:NoMass,
  {baf5cea3-0877-4246-8e60-18e8dc1befbc}, !- Handle
  WoodFraming16inOC,                      !- Name
  Smooth,                                 !- Roughness
  0.14969365612996;                       !- Thermal Resistance {m2-K/W}

OS:Material,
  {3a0ea556-2c92-400b-8dfd-9dbcafa69149}, !- Handle
  Concrete - 140 lb/ft3 - 8 in.,          !- Name
  Smooth,                                 !- Roughness
  0.2032,                                 !- Thickness {m}
  1.95140333633374,                       !- Conductivity {W/m-K}
  2239.06081041215,                       !- Density {kg/m3}
  921.096;                                !- Specific Heat {J/kg-K}

OS:Material,
  {9863c8ee-ea31-4a51-9081-cc69e953719c}, !- Handle
  Concrete - 140 lb/ft3 - 4 in.,          !- Name
  Smooth,                                 !- Roughness
  0.1016,                                 !- Thickness {m}
  1.95140333633374,                       !- Conductivity {W/m-K}
  2239.06081041215,                       !- Density {kg/m3}
  921.096;                                !- Specific Heat {J/kg-K}

OS:Material,
  {9d894122-029d-489c-8997-c4b16fe0c3af}, !- Handle
  Compliance Insulation R0.20,            !- Name
  Smooth,                                 !- Roughness
  0.000810768,                            !- Thickness {m}
  0.0230187710627394,                     !- Conductivity {W/m-K}
  16.0184633739601,                       !- Density {kg/m3}
  1130.436;                               !- Specific Heat {J/kg-K}

OS:Material:NoMass,
  {8f874b07-8ab9-47d0-928e-eb9e8510a781}, !- Handle
  WoodFrameWall16inOCCavInsR5,            !- Name
  Smooth,                                 !- Roughness
  0.898917449467759;                      !- Thermal Resistance {m2-K/W}

OS:Material,
  {7287db78-946b-4a27-b39c-3bc6692ec91c}, !- Handle
  Compliance Insulation R6.00,            !- Name
  Smooth,                                 !- Roughness
  0.02432304,                             !- Thickness {m}
  0.0230187710627394,                     !- Conductivity {W/m-K}
  16.0184633739601,                       !- Density {kg/m3}
  1130.436;                               !- Specific Heat {J/kg-K}

OS:Material,
  {cbc9b7ca-6cc7-4487-bc12-c6a4d475a55c}, !- Handle
  Compliance Insulation R2.15,            !- Name
  Smooth,                                 !- Roughness
  0.008715756,                            !- Thickness {m}
  0.0230187710627394,                     !- Conductivity {W/m-K}
  16.0184633739601,                       !- Density {kg/m3}
  1130.436;                               !- Specific Heat {J/kg-K}

OS:Material,
  {53055934-1ddf-46a5-98d2-7ed73c81e960}, !- Handle
  Compliance Insulation R0.50,            !- Name
  Smooth,                                 !- Roughness
  0.00202692,                             !- Thickness {m}
  0.0230187710627394,                     !- Conductivity {W/m-K}
  16.0184633739601,                       !- Density {kg/m3}
  1130.436;                               !- Specific Heat {J/kg-K}

OS:Material,
  {8f10d642-a488-4939-bc14-a9c461485b79}, !- Handle
  Compliance Insulation R10.00,           !- Name
  Smooth,                                 !- Roughness
  0.0405384,                              !- Thickness {m}
  0.0230187710627394,                     !- Conductivity {W/m-K}
  16.0184633739601,                       !- Density {kg/m3}
  1130.436;                               !- Specific Heat {J/kg-K}

OS:Construction,
  {6883ab07-3f9f-4fe8-a233-399fe52236a2}, !- Handle
  ResWoodWallU059,                        !- Name
  ,                                       !- Surface Rendering Name
  {7e5db9f6-4c30-46d9-9d5d-ba486b1b1878}, !- Layer 1
  {1db4e2d1-71dc-4f5c-b4d9-38c2eb9d943d}, !- Layer 2
  {24e8d34f-0cdc-4224-adbb-9534ff4b58fd}, !- Layer 3
  {8f874b07-8ab9-47d0-928e-eb9e8510a781}, !- Layer 4
  {b94d21ed-d245-40fb-9f2b-7a97fcfc68e3}; !- Layer 5

OS:Construction,
  {a1e3a338-4dca-40b7-b9d1-fe98282f6988}, !- Handle
  WoodFramedInteriorWallU099,             !- Name