
OS:Version,
  {08340e7a-7f07-44bf-a0b2-4f51636a3d00}, !- Handle
  2.7.2;                                  !- Version Identifier

OS:SimulationControl,
  {be839e6c-fe8c-4cff-8c6c-63dd30e255e2}, !- Handle
  ,                                       !- Do Zone Sizing Calculation
  ,                                       !- Do System Sizing Calculation
  ,                                       !- Do Plant Sizing Calculation
  No,                                     !- Run Simulation for Sizing Periods
  Yes,                                    !- Run Simulation for Weather File Run Periods
  ,                                       !- Loads Convergence Tolerance Value
  ,                                       !- Temperature Convergence Tolerance Value {deltaC}
  FullExterior,                           !- Solar Distribution
  50;                                     !- Maximum Number of Warmup Days

OS:YearDescription,
  {ca359eae-411d-455c-8dc6-95f5bbc5c1eb}, !- Handle
  2009,                                   !- Calendar Year
  ,                                       !- Day of Week for Start Day
  ;                                       !- Is Leap Year

OS:RunPeriod,
  {bb398fe6-76a8-4955-9c94-bb43f7f29a20}, !- Handle
  CTZ06S22A,                              !- Name
  1,                                      !- Begin Month
  1,                                      !- Begin Day of Month
  12,                                     !- End Month
  31,                                     !- End Day of Month
  No,                                     !- Use Weather File Holidays and Special Days
  No,                                     !- Use Weather File Daylight Saving Period
  Yes,                                    !- Apply Weekend Holiday Rule
  ,                                       !- Use Weather File Rain Indicators
  ,                                       !- Use Weather File Snow Indicators
  ;                                       !- Number of Times Runperiod to be Repeated

OS:Site,
  {21743ef5-422e-45a1-b332-2e355d165c59}, !- Handle
  CA_TORRANCE-MUNI-AP_USA Design_Conditions, !- Name
  33.8,                                   !- Latitude {deg}
  -118.33,                                !- Longitude {deg}
  -8,                                     !- Time Zone {hr}
  31.0896,                                !- Elevation {m}
  ;                                       !- Terrain

OS:SizingPeriod:DesignDay,
  {9e4e5fd1-318d-4c6d-9dd9-896a1cd2876b}, !- Handle
  CA_TORRANCE-MUNI-AP Ann Htg 99.6% Condns DB, !- Name
  6.9,                                    !- Maximum Dry-Bulb Temperature {C}
  0,                                      !- Daily Dry-Bulb Temperature Range {deltaC}
  6.9,                                    !- Humidity Indicating Conditions at Maximum Dry-Bulb
  100953,                                 !- Barometric Pressure {Pa}
  0.5,                                    !- Wind Speed {m/s}
  70,                                     !- Wind Direction {deg}
  0,                                      !- Sky Clearness
  0,                                      !- Rain Indicator
  0,                                      !- Snow Indicator
  21,                                     !- Day of Month
  12,                                     !- Month
  WinterDesignDay,                        !- Day Type
  0,                                      !- Daylight Saving Time Indicator
  Wetbulb,                                !- Humidity Indicating Type
  ,                                       !- Humidity Indicating Day Schedule Name
  DefaultMultipliers,                     !- Dry-Bulb Temperature Range Modifier Type
  ,                                       !- Dry-Bulb Temperature Range Modifier Schedule Name
  ASHRAEClearSky;                         !- Solar Model Indicator

OS:SizingPeriod:DesignDay,
  {ad8491f4-b20b-4f07-abeb-726d7e8d3452}, !- Handle
  CA_TORRANCE-MUNI-AP Ann Clg .4% Condns DB=>MWB, !- Name
  31.1,                                   !- Maximum Dry-Bulb Temperature {C}
  6.6,                                    !- Daily Dry-Bulb Temperature Range {deltaC}
  17.1,                                   !- Humidity Indicating Conditions at Maximum Dry-Bulb
  100953,                                 !- Barometric Pressure {Pa}
  3.2,                                    !- Wind Speed {m/s}
  250,                                    !- Wind Direction {deg}
  0,                                      !- Sky Clearness
  0,                                      !- Rain Indicator
  0,                                      !- Snow Indicator
  21,                                     !- Day of Month
  8,                                      !- Month
  SummerDesignDay,                        !- Day Type
  0,                                      !- Daylight Saving Time Indicator
  Wetbulb,                                !- Humidity Indicating Type
  ,                                       !- Humidity Indicating Day Schedule Name
  DefaultMultipliers,                     !- Dry-Bulb Temperature Range Modifier Type
  ,                                       !- Dry-Bulb Temperature Range Modifier Schedule Name
  ASHRAETau,                              !- Solar Model Indicator
  ,                                       !- Beam Solar Day Schedule Name
  ,                                       !- Diffuse Solar Day Schedule Name
  0.381,                                  !- ASHRAE Taub {dimensionless}
  2.448;                                  !- ASHRAE Taud {dimensionless}

OS:SizingPeriod:DesignDay,
  {c79de38b-0887-4df8-afa4-a4feff64de12}, !- Handle
  CA_TORRANCE-MUNI-AP Ann Clg .4% Condns WB=>MDB, !- Name
  26.5,                                   !- Maximum Dry-Bulb Temperature {C}
  6.6,                                    !- Daily Dry-Bulb Temperature Range {deltaC}
  21,                                     !- Humidity Indicating Conditions at Maximum Dry-Bulb
  100953,                                 !- Barometric Pressure {Pa}
  3.2,                                    !- Wind Speed {m/s}
  250,                                    !- Wind Direction {deg}
  0,                                      !- Sky Clearness
  0,                                      !- Rain Indicator
  0,                                      !- Snow Indicator
  21,                                     !- Day of Month
  8,                                      !- Month
  SummerDesignDay,                        !- Day Type
  0,                                      !- Daylight Saving Time Indicator
  Wetbulb,                                !- Humidity Indicating Type
  ,                                       !- Humidity Indicating Day Schedule Name
  DefaultMultipliers,                     !- Dry-Bulb Temperature Range Modifier Type
  ,                                       !- Dry-Bulb Temperature Range Modifier Schedule Name
  ASHRAETau,                              !- Solar Model Indicator
  ,                                       !- Beam Solar Day Schedule Name
  ,                                       !- Diffuse Solar Day Schedule Name
  0.381,                                  !- ASHRAE Taub {dimensionless}
  2.448;                                  !- ASHRAE Taud {dimensionless}

OS:SizingPeriod:DesignDay,
  {8a2b6e34-7ba4-4783-8773-acf68fc3779a}, !- Handle
  CA_TORRANCE-MUNI-AP Ann Clg .4% Condns DP=>MDB, !- Name
  23.6,                                   !- Maximum Dry-Bulb Temperature {C}
  6.6,                                    !- Daily Dry-Bulb Temperature Range {deltaC}
  19,                                     !- Humidity Indicating Conditions at Maximum Dry-Bulb
  100953,                                 !- Barometric Pressure {Pa}
  3.2,                                    !- Wind Speed {m/s}
  250,                                    !- Wind Direction {deg}
  0,                                      !- Sky Clearness
  0,                                      !- Rain Indicator
  0,                                      !- Snow Indicator
  21,                                     !- Day of Month
  8,                                      !- Month
  SummerDesignDay,                        !- Day Type
  0,                                      !- Daylight Saving Time Indicator
  Dewpoint,                               !- Humidity Indicating Type
  ,                                       !- Humidity Indicating Day Schedule Name
  DefaultMultipliers,                     !- Dry-Bulb Temperature Range Modifier Type
  ,                                       !- Dry-Bulb Temperature Range Modifier Schedule Name
  ASHRAETau,                              !- Solar Model Indicator
  ,                                       !- Beam Solar Day Schedule Name
  ,                                       !- Diffuse Solar Day Schedule Name
  0.381,                                  !- ASHRAE Taub {dimensionless}
  2.448;                                  !- ASHRAE Taud {dimensionless}

OS:SizingPeriod:DesignDay,
  {a66a7cbf-5928-4296-a2ec-e77174954940}, !- Handle
  CA_TORRANCE-MUNI-AP June .4% Condns DB=>MCWB, !- Name
  28.5,                                   !- Maximum Dry-Bulb Temperature {C}
  5.8,                                    !- Daily Dry-Bulb Temperature Range {deltaC}
  19.5,                                   !- Humidity Indicating Conditions at Maximum Dry-Bulb
  100953,                                 !- Barometric Pressure {Pa}
  2.6,                                    !- Wind Speed {m/s}
  250,                                    !- Wind Direction {deg}
  0,                                      !- Sky Clearness
  0,                                      !- Rain Indicator
  0,                                      !- Snow Indicator
  21,                                     !- Day of Month
  6,                                      !- Month
  SummerDesignDay,                        !- Day Type
  0,                                      !- Daylight Saving Time Indicator
  Wetbulb,                                !- Humidity Indicating Type
  ,                                       !- Humidity Indicating Day Schedule Name
  DefaultMultipliers,                     !- Dry-Bulb Temperature Range Modifier Type
  ,                                       !- Dry-Bulb Temperature Range Modifier Schedule Name
  ASHRAETau,                              !- Solar Model Indicator
  ,                                       !- Beam Solar Day Schedule Name
  ,                                       !- Diffuse Solar Day Schedule Name
  0.399,                                  !- ASHRAE Taub {dimensionless}
  2.348;                                  !- ASHRAE Taud {dimensionless}

OS:SizingPeriod:DesignDay,
  {4b7ebe66-62e6-4061-950f-af8fb2bdd478}, !- Handle
  CA_TORRANCE-MUNI-AP July .4% Condns DB=>MCWB, !- Name
  29.4,                                   !- Maximum Dry-Bulb Temperature {C}
  6.3,                                    !- Daily Dry-Bulb Temperature Range {deltaC}
  21.2,                                   !- Humidity Indicating Conditions at Maximum Dry-Bulb
  100953,                                 !- Barometric Pressure {Pa}
  2.6,                                    !- Wind Speed {m/s}
  250,                                    !- Wind Direction {deg}
  0,                                      !- Sky Clearness
  0,                                      !- Rain Indicator
  0,                                      !- Snow Indicator
  21,                                     !- Day of Month
  7,                                      !- Month
  SummerDesignDay,                        !- Day Type
  0,                                      !- Daylight Saving Time Indicator
  Wetbulb,                                !- Humidity Indicating Type
  ,                                       !- Humidity Indicating Day Schedule Name
  DefaultMultipliers,                     !- Dry-Bulb Temperature Range Modifier Type
  ,                                       !- Dry-Bulb Temperature Range Modifier Schedule Name
  ASHRAETau,                              !- Solar Model Indicator
  ,                                       !- Beam Solar Day Schedule Name
  ,                                       !- Diffuse Solar Day Schedule Name
  0.399,                                  !- ASHRAE Taub {dimensionless}
  2.415;                                  !- ASHRAE Taud {dimensionless}

OS:SizingPeriod:DesignDay,
  {a8878183-ef35-4017-9f77-735adfcae724}, !- Handle
  CA_TORRANCE-MUNI-AP August .4% Condns DB=>MCWB, !- Name
  30.1,                                   !- Maximum Dry-Bulb Temperature {C}
  6.6,                                    !- Daily Dry-Bulb Temperature Range {deltaC}
  19.9,                                   !- Humidity Indicating Conditions at Maximum Dry-Bulb
  100953,                                 !- Barometric Pressure {Pa}
  2.4,                                    !- Wind Speed {m/s}
  250,                                    !- Wind Direction {deg}
  0,                                      !- Sky Clearness
  0,                                      !- Rain Indicator
  0,                                      !- Snow Indicator
  21,                                     !- Day of Month
  8,                                      !- Month
  SummerDesignDay,                        !- Day Type
  0,                                      !- Daylight Saving Time Indicator
  Wetbulb,                                !- Humidity Indicating Type
  ,                                       !- Humidity Indicating Day Schedule Name
  DefaultMultipliers,                     !- Dry-Bulb Temperature Range Modifier Type
  ,                                       !- Dry-Bulb Temperature Range Modifier Schedule Name
  ASHRAETau,                              !- Solar Model Indicator
  ,                                       !- Beam Solar Day Schedule Name
  ,                                       !- Diffuse Solar Day Schedule Name
  0.381,                                  !- ASHRAE Taub {dimensionless}
  2.448;                                  !- ASHRAE Taud {dimensionless}

OS:SizingPeriod:DesignDay,
  {33268e48-7600-4e9a-8a74-0d1bcad345d3}, !- Handle
  CA_TORRANCE-MUNI-AP September .4% Condns DB=>MCWB, !- Name
  33.7,                                   !- Maximum Dry-Bulb Temperature {C}
  7.1,                                    !- Daily Dry-Bulb Temperature Range {deltaC}
  19.5,                                   !- Humidity Indicating Conditions at Maximum Dry-Bulb
  100953,                                 !- Barometric Pressure {Pa}
  2.2,                                    !- Wind Speed {m/s}
  250,                                    !- Wind Direction {deg}
  0,                                      !- Sky Clearness
  0,                                      !- Rain Indicator
  0,                                      !- Snow Indicator
  21,                                     !- Day of Month
  9,                                      !- Month
  SummerDesignDay,                        !- Day Type
  0,                                      !- Daylight Saving Time Indicator
  Wetbulb,                                !- Humidity Indicating Type
  ,                                       !- Humidity Indicating Day Schedule Name
  DefaultMultipliers,                     !- Dry-Bulb Temperature Range Modifier Type
  ,                                       !- Dry-Bulb Temperature Range Modifier Schedule Name
  ASHRAETau,                              !- Solar Model Indicator
  ,                                       !- Beam Solar Day Schedule Name
  ,                                       !- Diffuse Solar Day Schedule Name
  0.367,                                  !- ASHRAE Taub {dimensionless}
  2.48;                                   !- ASHRAE Taud {dimensionless}

OS:SizingPeriod:DesignDay,
  {14f35616-6d69-488a-9cad-14be42ef68a7}, !- Handle
  CA_TORRANCE-MUNI-AP October .4% Condns DB=>MCWB, !- Name
  33.8,                                   !- Maximum Dry-Bulb Temperature {C}
  7.9,                                    !- Daily Dry-Bulb Temperature Range {deltaC}
  16.1,                                   !- Humidity Indicating Conditions at Maximum Dry-Bulb
  100953,                                 !- Barometric Pressure {Pa}
  1.8,                                    !- Wind Speed {m/s}
  250,                                    !- Wind Direction {deg}
  0,                                      !- Sky Clearness
  0,                                      !- Rain Indicator
  0,                                      !- Snow Indicator
  21,                                     !- Day of Month
  10,                                     !- Month
  SummerDesignDay,                        !- Day Type
  0,                                      !- Daylight Saving Time Indicator
  Wetbulb,                                !- Humidity Indicating Type
  ,                                       !- Humidity Indicating Day Schedule Name
  DefaultMultipliers,                     !- Dry-Bulb Temperature Range Modifier Type
  ,                                       !- Dry-Bulb Temperature Range Modifier Schedule Name
  ASHRAETau,                              !- Solar Model Indicator
  ,                                       !- Beam Solar Day Schedule Name
  ,                                       !- Diffuse Solar Day Schedule Name
  0.374,                                  !- ASHRAE Taub {dimensionless}
  2.43;                                   !- ASHRAE Taud {dimensionless}

OS:SizingPeriod:DesignDay,
  {8e9740c1-66e7-4c17-b7e1-e8fef93e7109}, !- Handle
  CA_TORRANCE-MUNI-AP November .4% Condns DB=>MCWB, !- Name
  31.1,                                   !- Maximum Dry-Bulb Temperature {C}
  9.1,                                    !- Daily Dry-Bulb Temperature Range {deltaC}
  15.2,                                   !- Humidity Indicating Conditions at Maximum Dry-Bulb
  100953,                                 !- Barometric Pressure {Pa}
  1.4,                                    !- Wind Speed {m/s}
  250,                                    !- Wind Direction {deg}
  0,                                      !- Sky Clearness
  0,                                      !- Rain Indicator
  0,                                      !- Snow Indicator
  21,                                     !- Day of Month
  11,                                     !- Month
  SummerDesignDay,                        !- Day Type
  0,                                      !- Daylight Saving Time Indicator
  Wetbulb,                                !- Humidity Indicating Type
  ,                                       !- Humidity Indicating Day Schedule Name
  DefaultMultipliers,                     !- Dry-Bulb Temperature Range Modifier Type
  ,                                       !- Dry-Bulb Temperature Range Modifier Schedule Name
  ASHRAETau,                              !- Solar Model Indicator
  ,                                       !- Beam Solar Day Schedule Name
  ,                                       !- Diffuse Solar Day Schedule Name
  0.323,                                  !- ASHRAE Taub {dimensionless}
  2.574;                                  !- ASHRAE Taud {dimensionless}

OS:WeatherFile,
  {4d8bf5f2-b271-464e-8bc7-3f3a1a027045}, !- Handle
  CA_TORRANCE-MUNI-AP,                    !- City
  -,                                      !- State Province Region
  USA,                                    !- Country
  Custom-722955,                          !- Data Source
  722955,                                 !- WMO Number
  33.8,                                   !- Latitude {deg}
  -118.33,                                !- Longitude {deg}
  -8,                                     !- Time Zone {hr}
  31,                                     !- Elevation {m}
  file:///C:/Users/mnakajima/Documents/CBECC-Com 2022 Data/EPW/CTZ06S22A.epw, !- Url
  0CB1029E;                               !- Checksum

OS:Sizing:Parameters,
  {9012e68a-a1fd-4cb7-b8ea-438fd7645757}, !- Handle
  1,                                      !- Heating Sizing Factor
  1;                                      !- Cooling Sizing Factor

OS:Material,
  {2aeca288-8c5d-4de7-b84c-a467bb29ab9b}, !- Handle
  Gypsum Board - 1/2 in.,                 !- Name
  Smooth,                                 !- Roughness
  0.0127,                                 !- Thickness {m}
  0.158656446866265,                      !- Conductivity {W/m-K}
  640.738534958406,                       !- Density {kg/m3}
  1130.436,                               !- Specific Heat {J/kg-K}
  0.9,                                    !- Thermal Absorptance
  0.7,                                    !- Solar Absorptance
  0.8;                                    !- Visible Absorptance

OS:Material,
  {de1ba074-692f-4643-b7ad-0ee2fac8eeda}, !- Handle
  Gypsum Board - 5/8 in.,                 !- Name
  MediumRough,                            !- Roughness
  0.016002,                               !- Thickness {m}
  0.158656446866265,                      !- Conductivity {W/m-K}
  640.738534958406,                       !- Density {kg/m3}
  1130.436,                               !- Specific Heat {J/kg-K}
  0.9,                                    !- Thermal Absorptance
  0.7,                                    !- Solar Absorptance
  0.8;                                    !- Visible Absorptance

OS:Material,
  {e4107b1b-90a0-4fb5-a540-cbf0f82926b6}, !- Handle
  Stucco - 7/8 in.,                       !- Name
  MediumRough,                            !- Roughness
  0.022352,                               !- Thickness {m}
  0.700947539880412,                      !- Conductivity {W/m-K}
  1855.09824333832,                       !- Density {kg/m3}
  837.36,                                 !- Specific Heat {J/kg-K}
  0.9,                                    !- Thermal Absorptance
  0.7,                                    !- Solar Absorptance
  0.8;                                    !- Visible Absorptance

OS:Material,
  {dc6de923-b8bd-40c7-abba-23eff278891d}, !- Handle
  Carpet - 3/4 in.,                       !- Name
  Smooth,                                 !- Roughness
  0.01905,                                !- Thickness {m}
  0.0455183217255675,                     !- Conductivity {W/m-K}
  288.332340731283,                       !- Density {kg/m3}
  1381.644,                               !- Specific Heat {J/kg-K}
  0.9,                                    !- Thermal Absorptance
  0.7,                                    !- Solar Absorptance
  0.8;                                    !- Visible Absorptance

OS:Material,
  {a0a5933d-c557-43cd-9091-12686d3b5793}, !- Handle
  Plywood - 5/8 in.,                      !- Name
  Smooth,                                 !- Roughness
  0.016002,                               !- Thickness {m}
  0.115440002246971,                      !- Conductivity {W/m-K}
  480.553901218804,                       !- Density {kg/m3}
  1884.06;                                !- Specific Heat {J/kg-K}

OS:Material,
  {562bd974-3b2d-4f81-9d3b-e7aeee454503}, !- Handle
  Concrete - 140 lb/ft3 - 4 in.,          !- Name
  Smooth,                                 !- Roughness
  0.1016,                                 !- Thickness {m}
  1.95140333633374,                       !- Conductivity {W/m-K}
  2239.06081041215,                       !- Density {kg/m3}
  921.096;                                !- Specific Heat {J/kg-K}

OS:Material,
  {5624592f-ec6e-40bb-83f1-0a00c13b7db4}, !- Handle
  Compliance Insulation R0.20,            !- Name
  Smooth,                                 !- Roughness
  0.000810768,                            !- Thickness {m}
  0.0230187710627394,                     !- Conductivity {W/m-K}
  16.0184633739601,                       !- Density {kg/m3}
  1130.436;                               !- Specific Heat {J/kg-K}

OS:Material,
  {9d86b533-c0d5-4717-8cd7-1eb7b65b5b03}, !- Handle
  Concrete - Solid Grout - 115 lb/ft3 - 8 in., !- Name
  Smooth,                                 !- Roughness
  0.2032,                                 !- Thickness {m}
  1.31570449337553,                       !- Conductivity {W/m-K}
  1858.14175137938,                       !- Density {kg/m3}
  837.36;                                 !- Specific Heat {J/kg-K}

OS:Material,
  {20fb7cff-2412-4e1e-b201-367f6f77e143}, !- Handle
  Compliance Insulation R10.06,           !- Name
  Smooth,                                 !- Roughness
  0.040781732,                            !- Thickness {m}
  0.0230187710627394,                     !- Conductivity {W/m-K}
  16.0184633739601,                       !- Density {kg/m3}
  1130.436;                               !- Specific Heat {J/kg-K}

OS:Material,
  {6e468727-2469-4074-9336-6305da52e807}, !- Handle
  Compliance Insulation R2.00,            !- Name
  Smooth,                                 !- Roughness
  0.00810768,                             !- Thickness {m}
  0.0230187710627394,                     !- Conductivity {W/m-K}
  16.0184633739601,                       !- Density {kg/m3}
  1130.436;                               !- Specific Heat {J/kg-K}

OS:Material,
  {1dee5846-d93c-4401-b464-9aef66f2e092}, !- Handle
  Compliance Insulation R0.10,            !- Name
  Smooth,                                 !- Roughness
  0.000405384,                            !- Thickness {m}
  0.0230187710627394,                     !- Conductivity {W/m-K}
  16.0184633739601,                       !- Density {kg/m3}
  1130.436;                               !- Specific Heat {J/kg-K}

OS:Material,
  {b59a49ce-5f54-487b-923f-3d9397ad695d}, !- Handle
  Air - Metal Wall Framing - 16 or 24 in. OC, !- Name
  Smooth,                                 !- Roughness
  0.1397,                                 !- Thickness {m}
  1.22016793979183,                       !- Conductivity {W/m-K}
  1.28147706991681,                       !- Density {kg/m3}
  1004.832;                               !- Specific Heat {J/kg-K}

OS:Material,
  {cd527508-57cf-4ee4-a691-3b6552378f40}, !- Handle
  Metal Standing Seam - 1/16 in.,         !- Name
  MediumRough,                            !- Roughness
  0.0015875,                              !- Thickness {m}
  2.21534037295537,                       !- Conductivity {W/m-K}
  7820.53418843482,                       !- Density {kg/m3}
  502.416,                                !- Specific Heat {J/kg-K}
  0.85,                                   !- Thermal Absorptance
  0.37,                                   !- Solar Absorptance
  0.85;                                   !- Visible Absorptance

OS:Material,
  {eb4016c2-6b3b-4fd2-8a4c-fe28d495eeca}, !- Handle
  Compliance Insulation R28.63,           !- Name
  Smooth,                                 !- Roughness
  0.11606149,                             !- Thickness {m}
  0.0230187710627394,                     !- Conductivity {W/m-K}
  16.0184633739601,                       !- Density {kg/m3}
  1130.436,                               !- Specific Heat {J/kg-K}
  0.9,                                    !- Thermal Absorptance
  0.7,                                    !- Solar Absorptance
  0.8;                                    !- Visible Absorptance

OS:Material,
  {fed6da25-d035-412e-bb0e-efa1679e1689}, !- Handle
  Compliance Insulation R19.63,           !- Name
  Smooth,                                 !- Roughness
  0.07957693,                             !- Thickness {m}
  0.0230187710627394,                     !- Conductivity {W/m-K}
  16.0184633739601,                       !- Density {kg/m3}
  1130.436,                               !- Specific Heat {J/kg-K}
  0.9,                                    !- Thermal Absorptance
  0.7,                                    !- Solar Absorptance
  0.8;                                    !- Visible Absorptance

OS:Material,
  {56a823f7-dce7-489e-90f4-0da95725569b}, !- Handle
  Compliance Insulation R9.83,            !- Name
  MediumRough,                            !- Roughness
  0.03986911,                             !- Thickness {m}
  0.0230187710627394,                     !- Conductivity {W/m-K}
  16.0184633739601,                       !- Density {kg/m3}
  1130.436,                               !- Specific Heat {J/kg-K}
  0.9,                                    !- Thermal Absorptance
  0.7,                                    !- Solar Absorptance
  0.8;                                    !- Visible Absorptance

OS:Material,
  {9f7c5005-c2d1-46b7-8793-d929cd9765b2}, !- Handle
  Metal Deck - 1/16 in.,                  !- Name
  MediumRough,                            !- Roughness
  0.0015875,                              !- Thickness {m}
  45.3452482589303,                       !- Conductivity {W/m-K}
  7820.53418843482,                       !- Density {kg/m3}
  502.416,                                !- Specific Heat {J/kg-K}
  0.9,                                    !- Thermal Absorptance
  0.7,                                    !- Solar Absorptance
  0.8;                                    !- Visible Absorptance

OS:Construction,
  {109ad850-da0a-4aef-8e38-a2d5c87952dd}, !- Handle
  MetalFrameWallU069,                     !- Name
  ,                                       !- Surface Rendering Name
  {e4107b1b-90a0-4fb5-a540-cbf0f82926b6}, !- Layer 1
  {20fb7cff-2412-4e1e-b201-367f6f77e143}, !- Layer 2
  {6e468727-2469-4074-9336-6305da52e807}, !- Layer 3
  {5624592f-ec6e-40bb-83f1-0a00c13b7db4}, !- Layer 4
  {1dee5846-d93c-4401-b464-9aef66f2e092}, !- Layer 5
  {b59a49ce-5f54-487b-923f-3d9397ad695d}, !- Layer 6
  {2aeca288-8c5d-4de7-b84c-a467bb29ab9b}; !- Layer 7

OS:Construction,
  {ea834577-8c1a-4c49-9721-1c2d37acd420}, !- Handle
  MetalFrameWallInterior,                 !- Name
  ,                                       !- Surface Rendering Name
  {de1ba074-692f-4643-b7ad-0ee2fac8eeda}, !- Layer 1