
OS:Version,
  {c6700472-270d-4019-ab99-2740efed4ef9}, !- Handle
  2.7.2;                                  !- Version Identifier

OS:SimulationControl,
  {61c53f22-d62c-435e-9395-c7d4aacc204e}, !- Handle
  ,                                       !- Do Zone Sizing Calculation
  ,                                       !- Do System Sizing Calculation
  ,                                       !- Do Plant Sizing Calculation
  Yes,                                    !- Run Simulation for Sizing Periods
  No,                                     !- Run Simulation for Weather File Run Periods
  ,                                       !- Loads Convergence Tolerance Value
  ,                                       !- Temperature Convergence Tolerance Value {deltaC}
  FullExterior,                           !- Solar Distribution
  50;                                     !- Maximum Number of Warmup Days

OS:Site,
  {4b63dddd-4113-46ed-b28f-fa82d6c56d9a}, !- Handle
  CA_FRESNO-YOSEMITE-IAP_USA Design_Conditions, !- Name
  36.78,                                  !- Latitude {deg}
  -119.72,                                !- Longitude {deg}
  -8,                                     !- Time Zone {hr}
  99.06,                                  !- Elevation {m}
  ;                                       !- Terrain

OS:SizingPeriod:DesignDay,
  {e93c22b3-2c59-4c9e-a4f9-f327d2c55875}, !- Handle
  CA_FRESNO-YOSEMITE-IAP Ann Htg 99.6% Condns DB, !- Name
  -0.1,                                   !- Maximum Dry-Bulb Temperature {C}
  0,                                      !- Daily Dry-Bulb Temperature Range {deltaC}
  -0.1,                                   !- Humidity Indicating Conditions at Maximum Dry-Bulb
  100141,                                 !- Barometric Pressure {Pa}
  1,                                      !- Wind Speed {m/s}
  80,                                     !- Wind Direction {deg}
  0,                                      !- Sky Clearness
  0,                                      !- Rain Indicator
  0,                                      !- Snow Indicator
  21,                                     !- Day of Month
  12,                                     !- Month
  WinterDesignDay,                        !- Day Type
  0,                                      !- Daylight Saving Time Indicator
  Wetbulb,                                !- Humidity Indicating Type
  ,                                       !- Humidity Indicating Day Schedule Name
  DefaultMultipliers,                     !- Dry-Bulb Temperature Range Modifier Type
  ,                                       !- Dry-Bulb Temperature Range Modifier Schedule Name
  ASHRAEClearSky;                         !- Solar Model Indicator

OS:SizingPeriod:DesignDay,
  {aa147b1a-2fa6-4190-b50e-256094a65cca}, !- Handle
  CA_FRESNO-YOSEMITE-IAP Ann Clg .4% Condns DB=>MWB, !- Name
  39.8,                                   !- Maximum Dry-Bulb Temperature {C}
  16.2,                                   !- Daily Dry-Bulb Temperature Range {deltaC}
  21.3,                                   !- Humidity Indicating Conditions at Maximum Dry-Bulb
  100141,                                 !- Barometric Pressure {Pa}
  3.7,                                    !- Wind Speed {m/s}
  300,                                    !- Wind Direction {deg}
  0,                                      !- Sky Clearness
  0,                                      !- Rain Indicator
  0,                                      !- Snow Indicator
  21,                                     !- Day of Month
  7,                                      !- Month
  SummerDesignDay,                        !- Day Type
  0,                                      !- Daylight Saving Time Indicator
  Wetbulb,                                !- Humidity Indicating Type
  ,                                       !- Humidity Indicating Day Schedule Name
  DefaultMultipliers,                     !- Dry-Bulb Temperature Range Modifier Type
  ,                                       !- Dry-Bulb Temperature Range Modifier Schedule Name
  ASHRAETau,                              !- Solar Model Indicator
  ,                                       !- Beam Solar Day Schedule Name
  ,                                       !- Diffuse Solar Day Schedule Name
  0.383,                                  !- ASHRAE Taub {dimensionless}
  2.374;                                  !- ASHRAE Taud {dimensionless}

OS:SizingPeriod:DesignDay,
  {15f34481-1800-424f-a3c6-3bea0f3bb151}, !- Handle
  CA_FRESNO-YOSEMITE-IAP Ann Clg .4% Condns WB=>MDB, !- Name
  36.3,                                   !- Maximum Dry-Bulb Temperature {C}
  16.2,                                   !- Daily Dry-Bulb Temperature Range {deltaC}
  23,                                     !- Humidity Indicating Conditions at Maximum Dry-Bulb
  100141,                                 !- Barometric Pressure {Pa}
  3.7,                                    !- Wind Speed {m/s}
  300,                                    !- Wind Direction {deg}
  0,                                      !- Sky Clearness
  0,                                      !- Rain Indicator
  0,                                      !- Snow Indicator
  21,                                     !- Day of Month
  7,                                      !- Month
  SummerDesignDay,                        !- Day Type
  0,                                      !- Daylight Saving Time Indicator
  Wetbulb,                                !- Humidity Indicating Type
  ,                                       !- Humidity Indicating Day Schedule Name
  DefaultMultipliers,                     !- Dry-Bulb Temperature Range Modifier Type
  ,                                       !- Dry-Bulb Temperature Range Modifier Schedule Name
  ASHRAETau,                              !- Solar Model Indicator
  ,                                       !- Beam Solar Day Schedule Name
  ,                                       !- Diffuse Solar Day Schedule Name
  0.383,                                  !- ASHRAE Taub {dimensionless}
  2.374;                                  !- ASHRAE Taud {dimensionless}

OS:SizingPeriod:DesignDay,
  {32526c75-ace1-4534-9c1d-9d74a8ae51b6}, !- Handle
  CA_FRESNO-YOSEMITE-IAP Ann Clg .4% Condns DP=>MDB, !- Name
  29.8,                                   !- Maximum Dry-Bulb Temperature {C}
  16.2,                                   !- Daily Dry-Bulb Temperature Range {deltaC}
  18.5,                                   !- Humidity Indicating Conditions at Maximum Dry-Bulb
  100141,                                 !- Barometric Pressure {Pa}
  3.7,                                    !- Wind Speed {m/s}
  300,                                    !- Wind Direction {deg}
  0,                                      !- Sky Clearness
  0,                                      !- Rain Indicator
  0,                                      !- Snow Indicator
  21,                                     !- Day of Month
  7,                                      !- Month
  SummerDesignDay,                        !- Day Type
  0,                                      !- Daylight Saving Time Indicator
  Dewpoint,                               !- Humidity Indicating Type
  ,                                       !- Humidity Indicating Day Schedule Name
  DefaultMultipliers,                     !- Dry-Bulb Temperature Range Modifier Type
  ,                                       !- Dry-Bulb Temperature Range Modifier Schedule Name
  ASHRAETau,                              !- Solar Model Indicator
  ,                                       !- Beam Solar Day Schedule Name
  ,                                       !- Diffuse Solar Day Schedule Name
  0.383,                                  !- ASHRAE Taub {dimensionless}
  2.374;                                  !- ASHRAE Taud {dimensionless}

OS:SizingPeriod:DesignDay,
  {40cc2aad-751e-41ef-a21b-63f8a91c2de7}, !- Handle
  CA_FRESNO-YOSEMITE-IAP June .4% Condns DB=>MCWB, !- Name
  40.5,                                   !- Maximum Dry-Bulb Temperature {C}
  15.8,                                   !- Daily Dry-Bulb Temperature Range {deltaC}
  21,                                     !- Humidity Indicating Conditions at Maximum Dry-Bulb
  100141,                                 !- Barometric Pressure {Pa}
  3.8,                                    !- Wind Speed {m/s}
  300,                                    !- Wind Direction {deg}
  0,                                      !- Sky Clearness
  0,                                      !- Rain Indicator
  0,                                      !- Snow Indicator
  21,                                     !- Day of Month
  6,                                      !- Month
  SummerDesignDay,                        !- Day Type
  0,                                      !- Daylight Saving Time Indicator
  Wetbulb,                                !- Humidity Indicating Type
  ,                                       !- Humidity Indicating Day Schedule Name
  DefaultMultipliers,                     !- Dry-Bulb Temperature Range Modifier Type
  ,                                       !- Dry-Bulb Temperature Range Modifier Schedule Name
  ASHRAETau,                              !- Solar Model Indicator
  ,                                       !- Beam Solar Day Schedule Name
  ,                                       !- Diffuse Solar Day Schedule Name
  0.364,                                  !- ASHRAE Taub {dimensionless}
  2.399;                                  !- ASHRAE Taud {dimensionless}

OS:SizingPeriod:DesignDay,
  {73f07e96-732f-4eef-a7e9-9c6081b4c045}, !- Handle
  CA_FRESNO-YOSEMITE-IAP July .4% Condns DB=>MCWB, !- Name
  42.1,                                   !- Maximum Dry-Bulb Temperature {C}
  16.2,                                   !- Daily Dry-Bulb Temperature Range {deltaC}
  22.3,                                   !- Humidity Indicating Conditions at Maximum Dry-Bulb
  100141,                                 !- Barometric Pressure {Pa}
  3.4,                                    !- Wind Speed {m/s}
  300,                                    !- Wind Direction {deg}
  0,                                      !- Sky Clearness
  0,                                      !- Rain Indicator
  0,                                      !- Snow Indicator
  21,                                     !- Day of Month
  7,                                      !- Month
  SummerDesignDay,                        !- Day Type
  0,                                      !- Daylight Saving Time Indicator
  Wetbulb,                                !- Humidity Indicating Type
  ,                                       !- Humidity Indicating Day Schedule Name
  DefaultMultipliers,                     !- Dry-Bulb Temperature Range Modifier Type
  ,                                       !- Dry-Bulb Temperature Range Modifier Schedule Name
  ASHRAETau,                              !- Solar Model Indicator
  ,                                       !- Beam Solar Day Schedule Name
  ,                                       !- Diffuse Solar Day Schedule Name
  0.383,                                  !- ASHRAE Taub {dimensionless}
  2.374;                                  !- ASHRAE Taud {dimensionless}

OS:SizingPeriod:DesignDay,
  {cd2b6731-f5aa-4807-aeed-452f36f1541f}, !- Handle
  CA_FRESNO-YOSEMITE-IAP August .4% Condns DB=>MCWB, !- Name
  41.4,                                   !- Maximum Dry-Bulb Temperature {C}
  16.3,                                   !- Daily Dry-Bulb Temperature Range {deltaC}
  22.2,                                   !- Humidity Indicating Conditions at Maximum Dry-Bulb
  100141,                                 !- Barometric Pressure {Pa}
  3.1,                                    !- Wind Speed {m/s}
  300,                                    !- Wind Direction {deg}
  0,                                      !- Sky Clearness
  0,                                      !- Rain Indicator
  0,                                      !- Snow Indicator
  21,                                     !- Day of Month
  8,                                      !- Month
  SummerDesignDay,                        !- Day Type
  0,                                      !- Daylight Saving Time Indicator
  Wetbulb,                                !- Humidity Indicating Type
  ,                                       !- Humidity Indicating Day Schedule Name
  DefaultMultipliers,                     !- Dry-Bulb Temperature Range Modifier Type
  ,                                       !- Dry-Bulb Temperature Range Modifier Schedule Name
  ASHRAETau,                              !- Solar Model Indicator
  ,                                       !- Beam Solar Day Schedule Name
  ,                                       !- Diffuse Solar Day Schedule Name
  0.368,                                  !- ASHRAE Taub {dimensionless}
  2.389;                                  !- ASHRAE Taud {dimensionless}

OS:SizingPeriod:DesignDay,
  {4e24ca4d-33ca-4897-bddf-a54ccc946c82}, !- Handle
  CA_FRESNO-YOSEMITE-IAP September .4% Condns DB=>MCWB, !- Name
  38.9,                                   !- Maximum Dry-Bulb Temperature {C}
  15.7,                                   !- Daily Dry-Bulb Temperature Range {deltaC}
  20.2,                                   !- Humidity Indicating Conditions at Maximum Dry-Bulb
  100141,                                 !- Barometric Pressure {Pa}
  2.6,                                    !- Wind Speed {m/s}
  300,                                    !- Wind Direction {deg}
  0,                                      !- Sky Clearness
  0,                                      !- Rain Indicator
  0,                                      !- Snow Indicator
  21,                                     !- Day of Month
  9,                                      !- Month
  SummerDesignDay,                        !- Day Type
  0,                                      !- Daylight Saving Time Indicator
  Wetbulb,                                !- Humidity Indicating Type
  ,                                       !- Humidity Indicating Day Schedule Name
  DefaultMultipliers,                     !- Dry-Bulb Temperature Range Modifier Type
  ,                                       !- Dry-Bulb Temperature Range Modifier Schedule Name
  ASHRAETau,                              !- Solar Model Indicator
  ,                                       !- Beam Solar Day Schedule Name
  ,                                       !- Diffuse Solar Day Schedule Name
  0.371,                                  !- ASHRAE Taub {dimensionless}
  2.391;                                  !- ASHRAE Taud {dimensionless}

OS:SizingPeriod:DesignDay,
  {1f303efb-956e-4cdb-bd28-fe7ca5c829f9}, !- Handle
  CA_FRESNO-YOSEMITE-IAP October .4% Condns DB=>MCWB, !- Name
  35.1,                                   !- Maximum Dry-Bulb Temperature {C}
  13.8,                                   !- Daily Dry-Bulb Temperature Range {deltaC}
  19.2,                                   !- Humidity Indicating Conditions at Maximum Dry-Bulb
  100141,                                 !- Barometric Pressure {Pa}
  2.1,                                    !- Wind Speed {m/s}
  300,                                    !- Wind Direction {deg}
  0,                                      !- Sky Clearness
  0,                                      !- Rain Indicator
  0,                                      !- Snow Indicator
  21,                                     !- Day of Month
  10,                                     !- Month
  SummerDesignDay,                        !- Day Type
  0,                                      !- Daylight Saving Time Indicator
  Wetbulb,                                !- Humidity Indicating Type
  ,                                       !- Humidity Indicating Day Schedule Name
  DefaultMultipliers,                     !- Dry-Bulb Temperature Range Modifier Type
  ,                                       !- Dry-Bulb Temperature Range Modifier Schedule Name
  ASHRAETau,                              !- Solar Model Indicator
  ,                                       !- Beam Solar Day Schedule Name
  ,                                       !- Diffuse Solar Day Schedule Name
  0.39,                                   !- ASHRAE Taub {dimensionless}
  2.283;                                  !- ASHRAE Taud {dimensionless}

OS:SizingPeriod:DesignDay,
  {2c019c1f-008d-4366-8d16-8413c6216a2b}, !- Handle
  CA_FRESNO-YOSEMITE-IAP November .4% Condns DB=>MCWB, !- Name
  26.4,                                   !- Maximum Dry-Bulb Temperature {C}
  11.2,                                   !- Daily Dry-Bulb Temperature Range {deltaC}
  15.5,                                   !- Humidity Indicating Conditions at Maximum Dry-Bulb
  100141,                                 !- Barometric Pressure {Pa}
  1.7,                                    !- Wind Speed {m/s}
  300,                                    !- Wind Direction {deg}
  0,                                      !- Sky Clearness
  0,                                      !- Rain Indicator
  0,                                      !- Snow Indicator
  21,                                     !- Day of Month
  11,                                     !- Month
  SummerDesignDay,                        !- Day Type
  0,                                      !- Daylight Saving Time Indicator
  Wetbulb,                                !- Humidity Indicating Type
  ,                                       !- Humidity Indicating Day Schedule Name
  DefaultMultipliers,                     !- Dry-Bulb Temperature Range Modifier Type
  ,                                       !- Dry-Bulb Temperature Range Modifier Schedule Name
  ASHRAETau,                              !- Solar Model Indicator
  ,                                       !- Beam Solar Day Schedule Name
  ,                                       !- Diffuse Solar Day Schedule Name
  0.38,                                   !- ASHRAE Taub {dimensionless}
  2.253;                                  !- ASHRAE Taud {dimensionless}

OS:WeatherFile,
  {f4b3ccd0-d266-4149-b1cd-685f783096ee}, !- Handle
  CA_FRESNO-YOSEMITE-IAP,                 !- City
  -,                                      !- State Province Region
  USA,                                    !- Country
  Custom-723890,                          !- Data Source
  723890,                                 !- WMO Number
  36.78,                                  !- Latitude {deg}
  -119.72,                                !- Longitude {deg}
  -8,                                     !- Time Zone {hr}
  99,                                     !- Elevation {m}
  file:///C:/Users/agoyal/Documents/CBECC-Com 2022 Data/EPW/CTZ13S22A.epw, !- Url
  CD65B3CA;                               !- Checksum

OS:Sizing:Parameters,
  {8d1b736b-f7f0-4692-ad54-b227a999b016}, !- Handle
  1,                                      !- Heating Sizing Factor
  1;                                      !- Cooling Sizing Factor

OS:Material,
  {8c0b21e4-87e3-4550-abcc-6b487e07c0f6}, !- Handle
  Gypsum Board - 1/2 in.,                 !- Name
  Smooth,                                 !- Roughness
  0.0127,                                 !- Thickness {m}
  0.158656446866265,                      !- Conductivity {W/m-K}
  640.738534958406,                       !- Density {kg/m3}
  1130.436,                               !- Specific Heat {J/kg-K}
  0.9,                                    !- Thermal Absorptance
  0.7,                                    !- Solar Absorptance
  0.8;                                    !- Visible Absorptance

OS:Material,
  {9e9e3627-609a-43f1-8345-647063084cd1}, !- Handle
  Gypsum Board - 5/8 in.,                 !- Name
  MediumRough,                            !- Roughness
  0.016002,                               !- Thickness {m}
  0.158656446866265,                      !- Conductivity {W/m-K}
  640.738534958406,                       !- Density {kg/m3}
  1130.436,                               !- Specific Heat {J/kg-K}
  0.9,                                    !- Thermal Absorptance
  0.7,                                    !- Solar Absorptance
  0.8;                                    !- Visible Absorptance

OS:Material,
  {7613cf2a-c3fd-4315-b181-c701d73137c1}, !- Handle
  Stucco - 7/8 in.,                       !- Name
  MediumRough,                            !- Roughness
  0.022352,                               !- Thickness {m}
  0.700947539880412,                      !- Conductivity {W/m-K}
  1855.09824333832,                       !- Density {kg/m3}
  837.36,                                 !- Specific Heat {J/kg-K}
  0.9,                                    !- Thermal Absorptance
  0.7,                                    !- Solar Absorptance
  0.8;                                    !- Visible Absorptance

OS:Material,
  {24820c32-2434-4b1f-86fe-446c3f8313fc}, !- Handle
  Carpet - 3/4 in.,                       !- Name
  Smooth,                                 !- Roughness
  0.01905,                                !- Thickness {m}
  0.0455183217255675,                     !- Conductivity {W/m-K}
  288.332340731283,                       !- Density {kg/m3}
  1381.644,                               !- Specific Heat {J/kg-K}
  0.9,                                    !- Thermal Absorptance
  0.7,                                    !- Solar Absorptance
  0.8;                                    !- Visible Absorptance

OS:Material,
  {d5909ce9-ee06-4f19-9721-ea407eabce4d}, !- Handle
  Plywood - 5/8 in.,                      !- Name
  Smooth,                                 !- Roughness
  0.016002,                               !- Thickness {m}
  0.115440002246971,                      !- Conductivity {W/m-K}
  480.553901218804,                       !- Density {kg/m3}
  1884.06;                                !- Specific Heat {J/kg-K}

OS:Material,
  {c4f5bc14-894f-497b-a741-b81def85cce7}, !- Handle
  Concrete - 140 lb/ft3 - 4 in.,          !- Name
  Smooth,                                 !- Roughness
  0.1016,                                 !- Thickness {m}
  1.95140333633374,                       !- Conductivity {W/m-K}
  2239.06081041215,                       !- Density {kg/m3}
  921.096;                                !- Specific Heat {J/kg-K}

OS:Material,
  {91c94b42-2e8f-4159-a7a2-cb7e4a52f74b}, !- Handle
  Compliance Insulation R0.20,            !- Name
  Smooth,                                 !- Roughness
  0.000810768,                            !- Thickness {m}
  0.0230187710627394,                     !- Conductivity {W/m-K}
  16.0184633739601,                       !- Density {kg/m3}
  1130.436;                               !- Specific Heat {J/kg-K}

OS:Material,
  {90007168-dcfa-4bb1-9a1d-a7300a531be0}, !- Handle
  Compliance Insulation R0.10,            !- Name
  Smooth,                                 !- Roughness
  0.000405384,                            !- Thickness {m}
  0.0230187710627394,                     !- Conductivity {W/m-K}
  16.0184633739601,                       !- Density {kg/m3}
  1130.436;                               !- Specific Heat {J/kg-K}

OS:Material,
  {467aed80-4174-4fe3-bfe7-73408b26171a}, !- Handle
  Concrete - Solid Grout - 115 lb/ft3 - 8 in., !- Name
  Smooth,                                 !- Roughness
  0.2032,                                 !- Thickness {m}
  1.31570449337553,                       !- Conductivity {W/m-K}
  1858.14175137938,                       !- Density {kg/m3}
  837.36;                                 !- Specific Heat {J/kg-K}

OS:Material,
  {f2f5fd9a-2b92-4286-bb8d-494f2054c825}, !- Handle
  Compliance Insulation R13.99,           !- Name
  Smooth,                                 !- Roughness
  0.05671312,                             !- Thickness {m}
  0.0230187710627394,                     !- Conductivity {W/m-K}
  16.0184633739601,                       !- Density {kg/m3}
  1130.436;                               !- Specific Heat {J/kg-K}

OS:Material,
  {4b0cc8c8-036c-4e2a-85a0-8f12ec25174f}, !- Handle
  Air - Metal Wall Framing - 16 or 24 in. OC, !- Name
  Smooth,                                 !- Roughness
  0.1397,                                 !- Thickness {m}
  1.22016793979183,                       !- Conductivity {W/m-K}
  1.28147706991681,                       !- Density {kg/m3}
  1004.832;                               !- Specific Heat {J/kg-K}

OS:Material,
  {afd627a4-237e-4a5a-8323-2f905d18eb31}, !- Handle
  Compliance Insulation R10.06,           !- Name
  Smooth,                                 !- Roughness
  0.040781732,                            !- Thickness {m}
  0.0230187710627394,                     !- Conductivity {W/m-K}
  16.0184633739601,                       !- Density {kg/m3}
  1130.436;                               !- Specific Heat {J/kg-K}

OS:Material,
  {e069a605-0ea0-45fb-a9c1-955ebd808842}, !- Handle
  Compliance Insulation R2.00,            !- Name
  Smooth,                                 !- Roughness
  0.00810768,                             !- Thickness {m}
  0.0230187710627394,                     !- Conductivity {W/m-K}
  16.0184633739601,                       !- Density {kg/m3}
  1130.436;                               !- Specific Heat {J/kg-K}

OS:Material,
  {63dbe8cd-229b-4805-ab09-fd52d03b1108}, !- Handle
  Metal Standing Seam - 1/16 in.,         !- Name
  MediumRough,                            !- Roughness
  0.0015875,                              !- Thickness {m}
  2.21534037295537,                       !- Conductivity {W/m-K}
  7820.53418843482,                       !- Density {kg/m3}
  502.416,                                !- Specific Heat {J/kg-K}
  0.85,                                   !- Thermal Absorptance
  0.37,                                   !- Solar Absorptance
  0.85;                                   !- Visible Absorptance

OS:Material,
  {e9118ca7-d822-4e72-b235-23c5a98677a9}, !- Handle
  Compliance Insulation R34.93,           !- Name
  Smooth,                                 !- Roughness
  0.141600682,                            !- Thickness {m}
  0.0230187710627394,                     !- Conductivity {W/m-K}
  16.0184633739601,                       !- Density {kg/m3}
  1130.436,                               !- Specific Heat {J/kg-K}
  0.9,                                    !- Thermal Absorptance
  0.7,                                    !- Solar Absorptance
  0.8;                                    !- Visible Absorptance

OS:Material,
  {ab3251e1-31fb-40a5-a127-3cda893087d1}, !- Handle
  Compliance Insulation R28.63,           !- Name
  Smooth,                                 !- Roughness
  0.11606149,                             !- Thickness {m}
  0.0230187710627394,                     !- Conductivity {W/m-K}
  16.0184633739601,                       !- Density {kg/m3}
  1130.436,                               !- Specific Heat {J/kg-K}
  0.9,                                    !- Thermal Absorptance
  0.7,                                    !- Solar Absorptance
  0.8;                                    !- Visible Absorptance

OS:Material,
  {1ac882be-a25a-477f-99ab-b0cb83eb51a9}, !- Handle
  Compliance Insulation R9.83,            !- Name
  MediumRough,                            !- Roughness
  0.03986911,                             !- Thickness {m}
  0.0230187710627394,                     !- Conductivity {W/m-K}
  16.0184633739601,                       !- Density {kg/m3}
  1130.436,                               !- Specific Heat {J/kg-K}
  0.9,                                    !- Thermal Absorptance
  0.7,                                    !- Solar Absorptance
  0.8;                                    !- Visible Absorptance

OS:Material,
  {24526a00-33da-4cd3-b48d-3a189672eb6c}, !- Handle
  Metal Deck - 1/16 in.,                  !- Name
  MediumRough,                            !- Roughness
  0.0015875,                              !- Thickness {m}
  45.3452482589303,                       !- Conductivity {W/m-K}
  7820.53418843482,                       !- Density {kg/m3}
  502.416,                                !- Specific Heat {J/kg-K}
  0.9,                                    !- Thermal Absorptance
  0.7,                                    !- Solar Absorptance
  0.8;                                    !- Visible Absorptance

OS:Construction,
  {36dee914-7976-448a-b598-d25129914ad2}, !- Handle
  MetalFrameWallU062,                     !- Name
  ,                                       !- Surface Rendering Name
  {7613cf2a-c3fd-4315-b181-c701d73137c1}, !- Layer 1
  {f2f5fd9a-2b92-4286-bb8d-494f2054c825}, !- Layer 2
  {4b0cc8c8-036c-4e2a-85a0-8f12ec25174f}, !- Layer 3
  {8c0b21e4-87e3-4550-abcc-6b487e07c0f6}; !- Layer 4

OS:Construction,
  {064865de-5f3c-4404-a96d-6663b83cf257}, !- Handle
  MetalFrameWallU069,                     !- Name
  ,                                       !- Surface Rendering Name
  {7334ceb7-dc20-4446-a57a-ae249ebae41f}, !- Layer 1
  {afd627a4-237e-4a5a-8323-2f905d18eb31}, !- Layer 2
  {e069a605-0ea0-45fb-a9c1-955ebd808842}, !- Layer 3
  {91c94b42-2e8f-4159-a7a2-cb7e4a52f74b}, !- Layer 4
  {90007168-dcfa-4bb1-9a1d-a7300a531be0}, !- Layer 5
  {989e4bf5-9afc-4f25-aadd-d4f1cc060230}, !- Layer 6
  {3ae59e6d-e6a0-4a21-aed1-1bb22d0a0865}; !- Layer 7

OS:Material,
  {7334ceb7-dc20-4446-a57a-ae249ebae41f}, !- Handle
  Stucco - 7/8 in. 1,                     !- Name
  MediumRough,                            !- Roughness
  0.022352,                               !- Thickness {m}
  0.700947539880412,                      !- Conductivity {W/m-K}
  1855.09824333832,                       !- Density {kg/m3}
  837.36,                                 !- Specific Heat {J/kg-K}
  0.9,                                    !- Thermal Absorptance