
OS:Version,
  {e48cdada-0700-4fce-9e3d-d0fce27dc68b}, !- Handle
  2.7.2;                                  !- Version Identifier

OS:SimulationControl,
  {1726d920-2e10-456e-b514-4779b83d6b4f}, !- Handle
  ,                                       !- Do Zone Sizing Calculation
  ,                                       !- Do System Sizing Calculation
  ,                                       !- Do Plant Sizing Calculation
  Yes,                                    !- Run Simulation for Sizing Periods
  No,                                     !- Run Simulation for Weather File Run Periods
  ,                                       !- Loads Convergence Tolerance Value
  ,                                       !- Temperature Convergence Tolerance Value {deltaC}
  FullExterior,                           !- Solar Distribution
  50;                                     !- Maximum Number of Warmup Days

OS:Site,
  {9eac545d-45bd-44db-b820-99a005dede6c}, !- Handle
  OAKLAND-METROPOLITAN-ARP Design_Conditions, !- Name
  37.72,                                  !- Latitude {deg}
  -122.22,                                !- Longitude {deg}
  -8,                                     !- Time Zone {hr}
  0.9144,                                 !- Elevation {m}
  ;                                       !- Terrain

OS:SizingPeriod:DesignDay,
  {9a632a49-c6e3-45df-9e87-50605f371089}, !- Handle
  OAKLAND-METROPOLITAN-ARP Ann Htg 99.6% Condns DB, !- Name
  3,                                      !- Maximum Dry-Bulb Temperature {C}
  0,                                      !- Daily Dry-Bulb Temperature Range {deltaC}
  3,                                      !- Humidity Indicating Conditions at Maximum Dry-Bulb
  101313,                                 !- Barometric Pressure {Pa}
  1.6,                                    !- Wind Speed {m/s}
  45,                                     !- Wind Direction {deg}
  0,                                      !- Sky Clearness
  0,                                      !- Rain Indicator
  0,                                      !- Snow Indicator
  21,                                     !- Day of Month
  1,                                      !- Month
  WinterDesignDay,                        !- Day Type
  0,                                      !- Daylight Saving Time Indicator
  Wetbulb,                                !- Humidity Indicating Type
  ,                                       !- Humidity Indicating Day Schedule Name
  DefaultMultipliers,                     !- Dry-Bulb Temperature Range Modifier Type
  ,                                       !- Dry-Bulb Temperature Range Modifier Schedule Name
  ASHRAEClearSky;                         !- Solar Model Indicator

OS:SizingPeriod:DesignDay,
  {bf9deef8-8541-4fea-9a11-5d28575a4d33}, !- Handle
  OAKLAND-METROPOLITAN-ARP Ann Clg 0.4% Condns DB=>MCWB, !- Name
  29,                                     !- Maximum Dry-Bulb Temperature {C}
  9.1,                                    !- Daily Dry-Bulb Temperature Range {deltaC}
  17.6,                                   !- Humidity Indicating Conditions at Maximum Dry-Bulb
  101313,                                 !- Barometric Pressure {Pa}
  4.9,                                    !- Wind Speed {m/s}
  315,                                    !- Wind Direction {deg}
  0,                                      !- Sky Clearness
  0,                                      !- Rain Indicator
  0,                                      !- Snow Indicator
  21,                                     !- Day of Month
  9,                                      !- Month
  SummerDesignDay,                        !- Day Type
  0,                                      !- Daylight Saving Time Indicator
  Wetbulb,                                !- Humidity Indicating Type
  ,                                       !- Humidity Indicating Day Schedule Name
  DefaultMultipliers,                     !- Dry-Bulb Temperature Range Modifier Type
  ,                                       !- Dry-Bulb Temperature Range Modifier Schedule Name
  ASHRAETau,                              !- Solar Model Indicator
  ,                                       !- Beam Solar Day Schedule Name
  ,                                       !- Diffuse Solar Day Schedule Name
  0.355,                                  !- ASHRAE Taub {dimensionless}
  2.502;                                  !- ASHRAE Taud {dimensionless}

OS:SizingPeriod:DesignDay,
  {dd615e2c-86d2-4711-b7fb-fa80cc22fee3}, !- Handle
  OAKLAND-METROPOLITAN-ARP Ann Clg 0.4% Condns DP=>MCDB, !- Name
  20.3,                                   !- Maximum Dry-Bulb Temperature {C}
  9.1,                                    !- Daily Dry-Bulb Temperature Range {deltaC}
  16,                                     !- Humidity Indicating Conditions at Maximum Dry-Bulb
  101313,                                 !- Barometric Pressure {Pa}
  4.3,                                    !- Wind Speed {m/s}
  315,                                    !- Wind Direction {deg}
  0,                                      !- Sky Clearness
  0,                                      !- Rain Indicator
  0,                                      !- Snow Indicator
  21,                                     !- Day of Month
  9,                                      !- Month
  SummerDesignDay,                        !- Day Type
  0,                                      !- Daylight Saving Time Indicator
  Dewpoint,                               !- Humidity Indicating Type
  ,                                       !- Humidity Indicating Day Schedule Name
  DefaultMultipliers,                     !- Dry-Bulb Temperature Range Modifier Type
  ,                                       !- Dry-Bulb Temperature Range Modifier Schedule Name
  ASHRAETau,                              !- Solar Model Indicator
  ,                                       !- Beam Solar Day Schedule Name
  ,                                       !- Diffuse Solar Day Schedule Name
  0.355,                                  !- ASHRAE Taub {dimensionless}
  2.502;                                  !- ASHRAE Taud {dimensionless}

OS:SizingPeriod:DesignDay,
  {a4fb5757-0560-4172-9f52-7d9b82e7f8fb}, !- Handle
  OAKLAND-METROPOLITAN-ARP JUN Clg 0.4% Condns DB=>MCWB, !- Name
  31.4,                                   !- Maximum Dry-Bulb Temperature {C}
  9.2,                                    !- Daily Dry-Bulb Temperature Range {deltaC}
  18.7,                                   !- Humidity Indicating Conditions at Maximum Dry-Bulb
  101313,                                 !- Barometric Pressure {Pa}
  5.4,                                    !- Wind Speed {m/s}
  315,                                    !- Wind Direction {deg}
  0,                                      !- Sky Clearness
  0,                                      !- Rain Indicator
  0,                                      !- Snow Indicator
  21,                                     !- Day of Month
  6,                                      !- Month
  SummerDesignDay,                        !- Day Type
  0,                                      !- Daylight Saving Time Indicator
  Wetbulb,                                !- Humidity Indicating Type
  ,                                       !- Humidity Indicating Day Schedule Name
  DefaultMultipliers,                     !- Dry-Bulb Temperature Range Modifier Type
  ,                                       !- Dry-Bulb Temperature Range Modifier Schedule Name
  ASHRAETau,                              !- Solar Model Indicator
  ,                                       !- Beam Solar Day Schedule Name
  ,                                       !- Diffuse Solar Day Schedule Name
  0.354,                                  !- ASHRAE Taub {dimensionless}
  2.493;                                  !- ASHRAE Taud {dimensionless}

OS:SizingPeriod:DesignDay,
  {db6d38f1-c3fd-45f6-bfa9-b3064ddececb}, !- Handle
  OAKLAND-METROPOLITAN-ARP JUL Clg 0.4% Condns DB=>MCWB, !- Name
  30,                                     !- Maximum Dry-Bulb Temperature {C}
  7.5,                                    !- Daily Dry-Bulb Temperature Range {deltaC}
  19.6,                                   !- Humidity Indicating Conditions at Maximum Dry-Bulb
  101313,                                 !- Barometric Pressure {Pa}
  4.5,                                    !- Wind Speed {m/s}
  270,                                    !- Wind Direction {deg}
  0,                                      !- Sky Clearness
  0,                                      !- Rain Indicator
  0,                                      !- Snow Indicator
  21,                                     !- Day of Month
  7,                                      !- Month
  SummerDesignDay,                        !- Day Type
  0,                                      !- Daylight Saving Time Indicator
  Wetbulb,                                !- Humidity Indicating Type
  ,                                       !- Humidity Indicating Day Schedule Name
  DefaultMultipliers,                     !- Dry-Bulb Temperature Range Modifier Type
  ,                                       !- Dry-Bulb Temperature Range Modifier Schedule Name
  ASHRAETau,                              !- Solar Model Indicator
  ,                                       !- Beam Solar Day Schedule Name
  ,                                       !- Diffuse Solar Day Schedule Name
  0.374,                                  !- ASHRAE Taub {dimensionless}
  2.387;                                  !- ASHRAE Taud {dimensionless}

OS:SizingPeriod:DesignDay,
  {861a58a0-229f-4489-9138-3e3685384ae9}, !- Handle
  OAKLAND-METROPOLITAN-ARP AUG Clg 0.4% Condns DB=>MCWB, !- Name
  30.2,                                   !- Maximum Dry-Bulb Temperature {C}
  8.3,                                    !- Daily Dry-Bulb Temperature Range {deltaC}
  18.4,                                   !- Humidity Indicating Conditions at Maximum Dry-Bulb
  101313,                                 !- Barometric Pressure {Pa}
  4.2,                                    !- Wind Speed {m/s}
  292,                                    !- Wind Direction {deg}
  0,                                      !- Sky Clearness
  0,                                      !- Rain Indicator
  0,                                      !- Snow Indicator
  21,                                     !- Day of Month
  8,                                      !- Month
  SummerDesignDay,                        !- Day Type
  0,                                      !- Daylight Saving Time Indicator
  Wetbulb,                                !- Humidity Indicating Type
  ,                                       !- Humidity Indicating Day Schedule Name
  DefaultMultipliers,                     !- Dry-Bulb Temperature Range Modifier Type
  ,                                       !- Dry-Bulb Temperature Range Modifier Schedule Name
  ASHRAETau,                              !- Solar Model Indicator
  ,                                       !- Beam Solar Day Schedule Name
  ,                                       !- Diffuse Solar Day Schedule Name
  0.369,                                  !- ASHRAE Taub {dimensionless}
  2.421;                                  !- ASHRAE Taud {dimensionless}

OS:SizingPeriod:DesignDay,
  {ea9a9a70-5ed8-4a43-8416-59ef75e15dd3}, !- Handle
  OAKLAND-METROPOLITAN-ARP SEP Clg 0.4% Condns DB=>MCWB, !- Name
  31.5,                                   !- Maximum Dry-Bulb Temperature {C}
  9.1,                                    !- Daily Dry-Bulb Temperature Range {deltaC}
  19.1,                                   !- Humidity Indicating Conditions at Maximum Dry-Bulb
  101313,                                 !- Barometric Pressure {Pa}
  5.5,                                    !- Wind Speed {m/s}
  292,                                    !- Wind Direction {deg}
  0,                                      !- Sky Clearness
  0,                                      !- Rain Indicator
  0,                                      !- Snow Indicator
  21,                                     !- Day of Month
  9,                                      !- Month
  SummerDesignDay,                        !- Day Type
  0,                                      !- Daylight Saving Time Indicator
  Wetbulb,                                !- Humidity Indicating Type
  ,                                       !- Humidity Indicating Day Schedule Name
  DefaultMultipliers,                     !- Dry-Bulb Temperature Range Modifier Type
  ,                                       !- Dry-Bulb Temperature Range Modifier Schedule Name
  ASHRAETau,                              !- Solar Model Indicator
  ,                                       !- Beam Solar Day Schedule Name
  ,                                       !- Diffuse Solar Day Schedule Name
  0.355,                                  !- ASHRAE Taub {dimensionless}
  2.502;                                  !- ASHRAE Taud {dimensionless}

OS:SizingPeriod:DesignDay,
  {25eb1a97-e6d0-4112-b4f3-c87ad6a401fd}, !- Handle
  OAKLAND-METROPOLITAN-ARP OCT Clg 0.4% Condns DB=>MCWB, !- Name
  28.9,                                   !- Maximum Dry-Bulb Temperature {C}
  9.7,                                    !- Daily Dry-Bulb Temperature Range {deltaC}
  15.3,                                   !- Humidity Indicating Conditions at Maximum Dry-Bulb
  101313,                                 !- Barometric Pressure {Pa}
  6.4,                                    !- Wind Speed {m/s}
  45,                                     !- Wind Direction {deg}
  0,                                      !- Sky Clearness
  0,                                      !- Rain Indicator
  0,                                      !- Snow Indicator
  21,                                     !- Day of Month
  10,                                     !- Month
  SummerDesignDay,                        !- Day Type
  0,                                      !- Daylight Saving Time Indicator
  Wetbulb,                                !- Humidity Indicating Type
  ,                                       !- Humidity Indicating Day Schedule Name
  DefaultMultipliers,                     !- Dry-Bulb Temperature Range Modifier Type
  ,                                       !- Dry-Bulb Temperature Range Modifier Schedule Name
  ASHRAETau,                              !- Solar Model Indicator
  ,                                       !- Beam Solar Day Schedule Name
  ,                                       !- Diffuse Solar Day Schedule Name
  0.338,                                  !- ASHRAE Taub {dimensionless}
  2.525;                                  !- ASHRAE Taud {dimensionless}

OS:SizingPeriod:DesignDay,
  {25103f28-09ca-4a5d-a242-0a9d97db41d7}, !- Handle
  OAKLAND-METROPOLITAN-ARP NOV Clg 0.4% Condns DB=>MCWB, !- Name
  23.3,                                   !- Maximum Dry-Bulb Temperature {C}
  5.4,                                    !- Daily Dry-Bulb Temperature Range {deltaC}
  16.6,                                   !- Humidity Indicating Conditions at Maximum Dry-Bulb
  101313,                                 !- Barometric Pressure {Pa}
  3.7,                                    !- Wind Speed {m/s}
  270,                                    !- Wind Direction {deg}
  0,                                      !- Sky Clearness
  0,                                      !- Rain Indicator
  0,                                      !- Snow Indicator
  21,                                     !- Day of Month
  11,                                     !- Month
  SummerDesignDay,                        !- Day Type
  0,                                      !- Daylight Saving Time Indicator
  Wetbulb,                                !- Humidity Indicating Type
  ,                                       !- Humidity Indicating Day Schedule Name
  DefaultMultipliers,                     !- Dry-Bulb Temperature Range Modifier Type
  ,                                       !- Dry-Bulb Temperature Range Modifier Schedule Name
  ASHRAETau,                              !- Solar Model Indicator
  ,                                       !- Beam Solar Day Schedule Name
  ,                                       !- Diffuse Solar Day Schedule Name
  0.321,                                  !- ASHRAE Taub {dimensionless}
  2.602;                                  !- ASHRAE Taud {dimensionless}

OS:WeatherFile,
  {bc5e9597-4065-40b3-9f88-a4dfeeda8f54}, !- Handle
  OAKLAND-METRO-AP,                       !- City
  -,                                      !- State Province Region
  USA,                                    !- Country
  Custom-724930,                          !- Data Source
  724930,                                 !- WMO Number
  37.72,                                  !- Latitude {deg}
  -122.22,                                !- Longitude {deg}
  -8,                                     !- Time Zone {hr}
  2,                                      !- Elevation {m}
  file:///C:/Users/agoyal/Documents/CBECC-Com 2019 Data/EPW/OAKLAND_724930_CZ2010.epw, !- Url
  203AB917;                               !- Checksum

OS:Sizing:Parameters,
  {516b494c-8e32-473e-ac49-9319aad5f8ea}, !- Handle
  1,                                      !- Heating Sizing Factor
  1;                                      !- Cooling Sizing Factor

OS:Material,
  {6b54a8ed-35f3-4c34-8528-2ed5e3fea4f3}, !- Handle
  Gypsum Board - 1/2 in.,                 !- Name
  Smooth,                                 !- Roughness
  0.0127,                                 !- Thickness {m}
  0.158656446866265,                      !- Conductivity {W/m-K}
  640.738534958406,                       !- Density {kg/m3}
  1130.436,                               !- Specific Heat {J/kg-K}
  0.9,                                    !- Thermal Absorptance
  0.7,                                    !- Solar Absorptance
  0.8;                                    !- Visible Absorptance

OS:Material,
  {410fe3e3-9d1b-43e9-be82-55712d08703f}, !- Handle
  Gypsum Board - 5/8 in.,                 !- Name
  MediumRough,                            !- Roughness
  0.016002,                               !- Thickness {m}
  0.158656446866265,                      !- Conductivity {W/m-K}
  640.738534958406,                       !- Density {kg/m3}
  1130.436,                               !- Specific Heat {J/kg-K}
  0.9,                                    !- Thermal Absorptance
  0.7,                                    !- Solar Absorptance
  0.8;                                    !- Visible Absorptance

OS:Material,
  {26524b16-758c-486d-9340-5caa2514d20d}, !- Handle
  Stucco - 7/8 in.,                       !- Name
  MediumRough,                            !- Roughness
  0.022352,                               !- Thickness {m}
  0.700947539880412,                      !- Conductivity {W/m-K}
  1855.09824333832,                       !- Density {kg/m3}
  837.36,                                 !- Specific Heat {J/kg-K}
  0.9,                                    !- Thermal Absorptance
  0.7,                                    !- Solar Absorptance
  0.8;                                    !- Visible Absorptance

OS:Material,
  {332f8fd5-afc8-452e-af13-c52cca5c65c8}, !- Handle
  Carpet - 3/4 in.,                       !- Name
  Smooth,                                 !- Roughness
  0.01905,                                !- Thickness {m}
  0.0455183217255675,                     !- Conductivity {W/m-K}
  288.332340731283,                       !- Density {kg/m3}
  1381.644,                               !- Specific Heat {J/kg-K}
  0.9,                                    !- Thermal Absorptance
  0.7,                                    !- Solar Absorptance
  0.8;                                    !- Visible Absorptance

OS:Material,
  {f0923c10-2284-409c-b9ce-55d0bb5eb8f5}, !- Handle
  Plywood - 5/8 in.,                      !- Name
  Smooth,                                 !- Roughness
  0.016002,                               !- Thickness {m}
  0.115440002246971,                      !- Conductivity {W/m-K}
  480.553901218804,                       !- Density {kg/m3}
  1884.06;                                !- Specific Heat {J/kg-K}

OS:Material,
  {5b5ef793-52c9-44f2-9f30-24f46e94078b}, !- Handle
  Concrete - 140 lb/ft3 - 4 in.,          !- Name
  Smooth,                                 !- Roughness
  0.1016,                                 !- Thickness {m}
  1.95140333633374,                       !- Conductivity {W/m-K}
  2239.06081041215,                       !- Density {kg/m3}
  921.096;                                !- Specific Heat {J/kg-K}

OS:Material,
  {18e4129b-2aff-4120-b6a6-d47c52b0bc2d}, !- Handle
  Compliance Insulation R0.20,            !- Name
  Smooth,                                 !- Roughness
  0.000810768,                            !- Thickness {m}
  0.0230187710627394,                     !- Conductivity {W/m-K}
  16.0184633739601,                       !- Density {kg/m3}
  1130.436;                               !- Specific Heat {J/kg-K}

OS:Material,
  {cef160e3-4d8a-48e6-bc75-ec58d2470981}, !- Handle
  Concrete - Solid Grout - 115 lb/ft3 - 8 in., !- Name
  Smooth,                                 !- Roughness
  0.2032,                                 !- Thickness {m}
  1.31570449337553,                       !- Conductivity {W/m-K}
  1858.14175137938,                       !- Density {kg/m3}
  837.36;                                 !- Specific Heat {J/kg-K}

OS:Material,
  {61cae0f4-58f3-47ae-bd57-a7b0a870d1ae}, !- Handle
  Compliance Insulation R10.06,           !- Name
  Smooth,                                 !- Roughness
  0.040781732,                            !- Thickness {m}
  0.0230187710627394,                     !- Conductivity {W/m-K}
  16.0184633739601,                       !- Density {kg/m3}
  1130.436;                               !- Specific Heat {J/kg-K}

OS:Material,
  {620ca700-8f51-4d18-afec-745bdff66558}, !- Handle
  Air - Metal Wall Framing - 16 or 24 in. OC, !- Name
  Smooth,                                 !- Roughness
  0.1397,                                 !- Thickness {m}
  1.22016793979183,                       !- Conductivity {W/m-K}
  1.28147706991681,                       !- Density {kg/m3}
  1004.832;                               !- Specific Heat {J/kg-K}

OS:Material,
  {551fe8a0-d076-42d1-b260-a138495cdf45}, !- Handle
  Compliance Insulation R2.00,            !- Name
  Smooth,                                 !- Roughness
  0.00810768,                             !- Thickness {m}
  0.0230187710627394,                     !- Conductivity {W/m-K}
  16.0184633739601,                       !- Density {kg/m3}
  1130.436;                               !- Specific Heat {J/kg-K}

OS:Material,
  {f3f35bf3-8302-4e80-99a1-ea9dd90ab1fd}, !- Handle
  Compliance Insulation R0.10,            !- Name
  Smooth,                                 !- Roughness
  0.000405384,                            !- Thickness {m}
  0.0230187710627394,                     !- Conductivity {W/m-K}
  16.0184633739601,                       !- Density {kg/m3}
  1130.436;                               !- Specific Heat {J/kg-K}

OS:Material,
  {f56f3a59-76dd-4e43-9c15-f0054ef398ea}, !- Handle
  Metal Standing Seam - 1/16 in.,         !- Name
  MediumRough,                            !- Roughness
  0.0015875,                              !- Thickness {m}
  2.21534037295537,                       !- Conductivity {W/m-K}
  7820.53418843482,                       !- Density {kg/m3}
  502.416,                                !- Specific Heat {J/kg-K}
  0.85,                                   !- Thermal Absorptance
  0.37,                                   !- Solar Absorptance
  0.85;                                   !- Visible Absorptance

OS:Material,
  {15dba7f9-d849-4c42-ac96-5363dff3ba17}, !- Handle
  Compliance Insulation R28.63,           !- Name
  Smooth,                                 !- Roughness
  0.11606149,                             !- Thickness {m}
  0.0230187710627394,                     !- Conductivity {W/m-K}
  16.0184633739601,                       !- Density {kg/m3}
  1130.436,                               !- Specific Heat {J/kg-K}
  0.9,                                    !- Thermal Absorptance
  0.7,                                    !- Solar Absorptance
  0.8;                                    !- Visible Absorptance

OS:Material,
  {f5bc869f-b543-4207-9c3c-1f2616360072}, !- Handle
  Compliance Insulation R9.83,            !- Name
  MediumRough,                            !- Roughness
  0.03986911,                             !- Thickness {m}
  0.0230187710627394,                     !- Conductivity {W/m-K}
  16.0184633739601,                       !- Density {kg/m3}
  1130.436,                               !- Specific Heat {J/kg-K}
  0.9,                                    !- Thermal Absorptance
  0.7,                                    !- Solar Absorptance
  0.8;                                    !- Visible Absorptance

OS:Material,
  {626b68bd-ddde-400d-847d-8cc709cb3da0}, !- Handle
  Metal Deck - 1/16 in.,                  !- Name
  MediumRough,                            !- Roughness
  0.0015875,                              !- Thickness {m}
  45.3452482589303,                       !- Conductivity {W/m-K}
  7820.53418843482,                       !- Density {kg/m3}
  502.416,                                !- Specific Heat {J/kg-K}
  0.9,                                    !- Thermal Absorptance
  0.7,                                    !- Solar Absorptance
  0.8;                                    !- Visible Absorptance

OS:Construction,
  {60b17053-adaf-4cf6-8078-723dfe3f6179}, !- Handle
  MetalFrameWallU082,                     !- Name
  ,                                       !- Surface Rendering Name
  {26524b16-758c-486d-9340-5caa2514d20d}, !- Layer 1
  {61cae0f4-58f3-47ae-bd57-a7b0a870d1ae}, !- Layer 2
  {620ca700-8f51-4d18-afec-745bdff66558}, !- Layer 3
  {6b54a8ed-35f3-4c34-8528-2ed5e3fea4f3}; !- Layer 4

OS:Construction,
  {09f72e0c-585c-4eed-9511-9279f68a7d5a}, !- Handle
  MetalFrameWallU069,                     !- Name
  ,                                       !- Surface Rendering Name
  {ae5e3b43-bbcc-44cb-a40f-dec9b885c56f}, !- Layer 1
  {9d946ea1-0bbb-4b36-8d8c-4b04518dc8f5}, !- Layer 2
  {551fe8a0-d076-42d1-b260-a138495cdf45}, !- Layer 3
  {18e4129b-2aff-4120-b6a6-d47c52b0bc2d}, !- Layer 4
  {f3f35bf3-8302-4e80-99a1-ea9dd90ab1fd}, !- Layer 5
  {d22b9046-2418-409a-997c-fab5b90deb61}, !- Layer 6
  {4cb1a8a4-4d29-45b0-b135-de60863f82a1}; !- Layer 7

OS:Material,
  {ae5e3b43-bbcc-44cb-a40f-dec9b885c56f}, !- Handle
  Stucco - 7/8 in. 1,                     !- Name
  MediumRough,                            !- Roughness
  0.022352,                               !- Thickness {m}
  0.700947539880412,                      !- Conductivity {W/m-K}
  1855.09824333832,                       !- Density {kg/m3}
  837.36,                                 !- Specific Heat {J/kg-K}
  0.9,                                    !- Thermal Absorptance
  0.7,                                    !- Solar Absorptance
  0.8;                                    !- Visible Absorptance

OS:Material,
  {9d946ea1-0bbb-4b36-8d8c-4b04518dc8f5}, !- Handle
  Compliance Insulation R10.06 1,         !- Name
  Smooth,                                 !- Roughness
  0.040781732,                            !- Thickness {m}
  0.0230187710627394,                     !- Conductivity {W/m-K}
  16.0184633739601,                       !- Density {kg/m3}
  1130.436;                               !- Specific Heat {J/kg-K}

OS:Material,
  {d22b9046-2418-409a-997c-fab5b90deb61}, !- Handle
  Air - Metal Wall Framing - 16 or 24 in. OC 1, !- Name
  Smooth,                                 !- Roughness
  0.1397,                                 !- Thickness {m}
  1.22016793979183,                       !- Conductivity {W/m-K}
  1.28147706991681,                       !- Density {kg/m3}
  1004.832;                               !- Specific Heat {J/kg-K}

OS:Material,
  {4cb1a8a4-4d29-45b0-b135-de60863f82a1}, !- Handle
  Gypsum Board - 1/2 in. 1,               !- Name
  Smooth,                                 !- Roughness
  0.0127,                                 !- Thickness {m}
  0.158656446866265,                      !- Conductivity {W/m-K}
  640.738534958406,                       !- Density {kg/m3}
  1130.436,                               !- Specific Heat {J/kg-K}
  0.9,                                    !- Thermal Absorptance
  0.7,                                    !- Solar Absorptance
  0.8;                                    !- Visible Absorptance

OS:Construction,
  {35526f48-1dd7-4b8e-8e06-7ccfad49b035}, !- Handle
  MetalFrameWallInterior,                 !- Name
  ,                                       !- Surface Rendering Name
  {410fe3e3-9d1b-43e9-be82-55712d08703f}, !- Layer 1
  {0f63f4ea-825e-451d-9ba9-e6a9e92f96e7}, !- Layer 2
  {410fe3e3-9d1b-43e9-be82-55712d08703f}; !- Layer 3

OS:Material,
  {0f63f4ea-825e-451d-9ba9-e6a9e92f96e7}, !- Handle
  Air - Metal Wall Framing - 16 or 24 in. OC 2, !- Name
  Smooth,                                 !- Roughness
  0.1397,                                 !- Thickness {m}
  1.22016793979183,                       !- Conductivity {W/m-K}
  1.28147706991681,                       !- Density {kg/m3}
  1004.832;                               !- Specific Heat {J/kg-K}

OS:Construction,
  {e12357f0-203c-45a4-96c2-c2f08b8a09e3}, !- Handle
  FlatNonresWoodFramingAndOtherRoofUnconditioned, !- Name
  ,                                       !- Surface Rendering Name
  {f56f3a59-76dd-4e43-9c15-f0054ef398ea}; !- Layer 1

OS:Construction,
  {34b66efa-b945-4a3f-81da-4f0010725517}, !- Handle
  FlatResWoodFramingAndOtherRoofU034Refl08, !- Name