
OS:Version,
  {45850071-187e-438a-960b-679f272621f9}, !- Handle
  2.7.2;                                  !- Version Identifier

OS:SimulationControl,
  {930ec89f-af16-47e2-b882-e3a867ceeb7a}, !- Handle
  ,                                       !- Do Zone Sizing Calculation
  ,                                       !- Do System Sizing Calculation
  ,                                       !- Do Plant Sizing Calculation
  Yes,                                    !- Run Simulation for Sizing Periods
  No,                                     !- Run Simulation for Weather File Run Periods
  ,                                       !- Loads Convergence Tolerance Value
  ,                                       !- Temperature Convergence Tolerance Value {deltaC}
  FullExterior,                           !- Solar Distribution
  50;                                     !- Maximum Number of Warmup Days

OS:Site,
  {6ce71a53-6f11-40d5-82d4-ed970e8fd5d9}, !- Handle
  SAN-DIEGO-LINDBERGH-FIEL Design_Conditions, !- Name
  32.72,                                  !- Latitude {deg}
  -117.17,                                !- Longitude {deg}
  -8,                                     !- Time Zone {hr}
  3.9624,                                 !- Elevation {m}
  ;                                       !- Terrain

OS:SizingPeriod:DesignDay,
  {94e182ca-788e-4bbd-a822-d1d21b9de979}, !- Handle
  SAN-DIEGO-LINDBERGH-FIEL Ann Htg 99.6% Condns DB, !- Name
  7.2,                                    !- Maximum Dry-Bulb Temperature {C}
  0,                                      !- Daily Dry-Bulb Temperature Range {deltaC}
  7.2,                                    !- Humidity Indicating Conditions at Maximum Dry-Bulb
  101277,                                 !- Barometric Pressure {Pa}
  0.8,                                    !- Wind Speed {m/s}
  337,                                    !- Wind Direction {deg}
  0,                                      !- Sky Clearness
  0,                                      !- Rain Indicator
  0,                                      !- Snow Indicator
  21,                                     !- Day of Month
  1,                                      !- Month
  WinterDesignDay,                        !- Day Type
  0,                                      !- Daylight Saving Time Indicator
  Wetbulb,                                !- Humidity Indicating Type
  ,                                       !- Humidity Indicating Day Schedule Name
  DefaultMultipliers,                     !- Dry-Bulb Temperature Range Modifier Type
  ,                                       !- Dry-Bulb Temperature Range Modifier Schedule Name
  ASHRAEClearSky;                         !- Solar Model Indicator

OS:SizingPeriod:DesignDay,
  {14879019-f8c1-4f81-b973-14b5de171210}, !- Handle
  SAN-DIEGO-LINDBERGH-FIEL Ann Clg 0.4% Condns DB=>MCWB, !- Name
  28.3,                                   !- Maximum Dry-Bulb Temperature {C}
  4.1,                                    !- Daily Dry-Bulb Temperature Range {deltaC}
  17.9,                                   !- Humidity Indicating Conditions at Maximum Dry-Bulb
  101277,                                 !- Barometric Pressure {Pa}
  4.1,                                    !- Wind Speed {m/s}
  292,                                    !- Wind Direction {deg}
  0,                                      !- Sky Clearness
  0,                                      !- Rain Indicator
  0,                                      !- Snow Indicator
  21,                                     !- Day of Month
  8,                                      !- Month
  SummerDesignDay,                        !- Day Type
  0,                                      !- Daylight Saving Time Indicator
  Wetbulb,                                !- Humidity Indicating Type
  ,                                       !- Humidity Indicating Day Schedule Name
  DefaultMultipliers,                     !- Dry-Bulb Temperature Range Modifier Type
  ,                                       !- Dry-Bulb Temperature Range Modifier Schedule Name
  ASHRAETau,                              !- Solar Model Indicator
  ,                                       !- Beam Solar Day Schedule Name
  ,                                       !- Diffuse Solar Day Schedule Name
  0.426,                                  !- ASHRAE Taub {dimensionless}
  2.214;                                  !- ASHRAE Taud {dimensionless}

OS:SizingPeriod:DesignDay,
  {21e192dc-c195-47a4-84c7-f54e8eafd6f2}, !- Handle
  SAN-DIEGO-LINDBERGH-FIEL Ann Clg 0.4% Condns DP=>MCDB, !- Name
  23.4,                                   !- Maximum Dry-Bulb Temperature {C}
  4.1,                                    !- Daily Dry-Bulb Temperature Range {deltaC}
  20.5,                                   !- Humidity Indicating Conditions at Maximum Dry-Bulb
  101277,                                 !- Barometric Pressure {Pa}
  0,                                      !- Wind Speed {m/s}
  292,                                    !- Wind Direction {deg}
  0,                                      !- Sky Clearness
  0,                                      !- Rain Indicator
  0,                                      !- Snow Indicator
  21,                                     !- Day of Month
  8,                                      !- Month
  SummerDesignDay,                        !- Day Type
  0,                                      !- Daylight Saving Time Indicator
  Dewpoint,                               !- Humidity Indicating Type
  ,                                       !- Humidity Indicating Day Schedule Name
  DefaultMultipliers,                     !- Dry-Bulb Temperature Range Modifier Type
  ,                                       !- Dry-Bulb Temperature Range Modifier Schedule Name
  ASHRAETau,                              !- Solar Model Indicator
  ,                                       !- Beam Solar Day Schedule Name
  ,                                       !- Diffuse Solar Day Schedule Name
  0.426,                                  !- ASHRAE Taub {dimensionless}
  2.214;                                  !- ASHRAE Taud {dimensionless}

OS:SizingPeriod:DesignDay,
  {94eecb62-5c86-4fca-a83f-c5ea1fd5bb41}, !- Handle
  SAN-DIEGO-LINDBERGH-FIEL JUN Clg 0.4% Condns DB=>MCWB, !- Name
  27,                                     !- Maximum Dry-Bulb Temperature {C}
  4.9,                                    !- Daily Dry-Bulb Temperature Range {deltaC}
  19.7,                                   !- Humidity Indicating Conditions at Maximum Dry-Bulb
  101277,                                 !- Barometric Pressure {Pa}
  4,                                      !- Wind Speed {m/s}
  292,                                    !- Wind Direction {deg}
  0,                                      !- Sky Clearness
  0,                                      !- Rain Indicator
  0,                                      !- Snow Indicator
  21,                                     !- Day of Month
  6,                                      !- Month
  SummerDesignDay,                        !- Day Type
  0,                                      !- Daylight Saving Time Indicator
  Wetbulb,                                !- Humidity Indicating Type
  ,                                       !- Humidity Indicating Day Schedule Name
  DefaultMultipliers,                     !- Dry-Bulb Temperature Range Modifier Type
  ,                                       !- Dry-Bulb Temperature Range Modifier Schedule Name
  ASHRAETau,                              !- Solar Model Indicator
  ,                                       !- Beam Solar Day Schedule Name
  ,                                       !- Diffuse Solar Day Schedule Name
  0.39,                                   !- ASHRAE Taub {dimensionless}
  2.3;                                    !- ASHRAE Taud {dimensionless}

OS:SizingPeriod:DesignDay,
  {f89cb55a-1c14-47c1-8b46-8a2fd49f68ca}, !- Handle
  SAN-DIEGO-LINDBERGH-FIEL JUL Clg 0.4% Condns DB=>MCWB, !- Name
  28,                                     !- Maximum Dry-Bulb Temperature {C}
  4.2,                                    !- Daily Dry-Bulb Temperature Range {deltaC}
  20.6,                                   !- Humidity Indicating Conditions at Maximum Dry-Bulb
  101277,                                 !- Barometric Pressure {Pa}
  3.8,                                    !- Wind Speed {m/s}
  270,                                    !- Wind Direction {deg}
  0,                                      !- Sky Clearness
  0,                                      !- Rain Indicator
  0,                                      !- Snow Indicator
  21,                                     !- Day of Month
  7,                                      !- Month
  SummerDesignDay,                        !- Day Type
  0,                                      !- Daylight Saving Time Indicator
  Wetbulb,                                !- Humidity Indicating Type
  ,                                       !- Humidity Indicating Day Schedule Name
  DefaultMultipliers,                     !- Dry-Bulb Temperature Range Modifier Type
  ,                                       !- Dry-Bulb Temperature Range Modifier Schedule Name
  ASHRAETau,                              !- Solar Model Indicator
  ,                                       !- Beam Solar Day Schedule Name
  ,                                       !- Diffuse Solar Day Schedule Name
  0.433,                                  !- ASHRAE Taub {dimensionless}
  2.158;                                  !- ASHRAE Taud {dimensionless}

OS:SizingPeriod:DesignDay,
  {1b97ebd5-d353-4265-aced-3a1e18dbae5c}, !- Handle
  SAN-DIEGO-LINDBERGH-FIEL AUG Clg 0.4% Condns DB=>MCWB, !- Name
  27.9,                                   !- Maximum Dry-Bulb Temperature {C}
  4.1,                                    !- Daily Dry-Bulb Temperature Range {deltaC}
  20.7,                                   !- Humidity Indicating Conditions at Maximum Dry-Bulb
  101277,                                 !- Barometric Pressure {Pa}
  4.6,                                    !- Wind Speed {m/s}
  315,                                    !- Wind Direction {deg}
  0,                                      !- Sky Clearness
  0,                                      !- Rain Indicator
  0,                                      !- Snow Indicator
  21,                                     !- Day of Month
  8,                                      !- Month
  SummerDesignDay,                        !- Day Type
  0,                                      !- Daylight Saving Time Indicator
  Wetbulb,                                !- Humidity Indicating Type
  ,                                       !- Humidity Indicating Day Schedule Name
  DefaultMultipliers,                     !- Dry-Bulb Temperature Range Modifier Type
  ,                                       !- Dry-Bulb Temperature Range Modifier Schedule Name
  ASHRAETau,                              !- Solar Model Indicator
  ,                                       !- Beam Solar Day Schedule Name
  ,                                       !- Diffuse Solar Day Schedule Name
  0.426,                                  !- ASHRAE Taub {dimensionless}
  2.214;                                  !- ASHRAE Taud {dimensionless}

OS:SizingPeriod:DesignDay,
  {e07d2dc0-57a7-4ed6-89ad-77ce1093d2e6}, !- Handle
  SAN-DIEGO-LINDBERGH-FIEL SEP Clg 0.4% Condns DB=>MCWB, !- Name
  30.6,                                   !- Maximum Dry-Bulb Temperature {C}
  4.6,                                    !- Daily Dry-Bulb Temperature Range {deltaC}
  21.2,                                   !- Humidity Indicating Conditions at Maximum Dry-Bulb
  101277,                                 !- Barometric Pressure {Pa}
  3.2,                                    !- Wind Speed {m/s}
  337,                                    !- Wind Direction {deg}
  0,                                      !- Sky Clearness
  0,                                      !- Rain Indicator
  0,                                      !- Snow Indicator
  21,                                     !- Day of Month
  9,                                      !- Month
  SummerDesignDay,                        !- Day Type
  0,                                      !- Daylight Saving Time Indicator
  Wetbulb,                                !- Humidity Indicating Type
  ,                                       !- Humidity Indicating Day Schedule Name
  DefaultMultipliers,                     !- Dry-Bulb Temperature Range Modifier Type
  ,                                       !- Dry-Bulb Temperature Range Modifier Schedule Name
  ASHRAETau,                              !- Solar Model Indicator
  ,                                       !- Beam Solar Day Schedule Name
  ,                                       !- Diffuse Solar Day Schedule Name
  0.383,                                  !- ASHRAE Taub {dimensionless}
  2.401;                                  !- ASHRAE Taud {dimensionless}

OS:SizingPeriod:DesignDay,
  {3a695f99-dfdf-48d6-98e0-c4225cc6abd2}, !- Handle
  SAN-DIEGO-LINDBERGH-FIEL OCT Clg 0.4% Condns DB=>MCWB, !- Name
  30.3,                                   !- Maximum Dry-Bulb Temperature {C}
  9.2,                                    !- Daily Dry-Bulb Temperature Range {deltaC}
  15.9,                                   !- Humidity Indicating Conditions at Maximum Dry-Bulb
  101277,                                 !- Barometric Pressure {Pa}
  3.5,                                    !- Wind Speed {m/s}
  292,                                    !- Wind Direction {deg}
  0,                                      !- Sky Clearness
  0,                                      !- Rain Indicator
  0,                                      !- Snow Indicator
  21,                                     !- Day of Month
  10,                                     !- Month
  SummerDesignDay,                        !- Day Type
  0,                                      !- Daylight Saving Time Indicator
  Wetbulb,                                !- Humidity Indicating Type
  ,                                       !- Humidity Indicating Day Schedule Name
  DefaultMultipliers,                     !- Dry-Bulb Temperature Range Modifier Type
  ,                                       !- Dry-Bulb Temperature Range Modifier Schedule Name
  ASHRAETau,                              !- Solar Model Indicator
  ,                                       !- Beam Solar Day Schedule Name
  ,                                       !- Diffuse Solar Day Schedule Name
  0.367,                                  !- ASHRAE Taub {dimensionless}
  2.359;                                  !- ASHRAE Taud {dimensionless}

OS:SizingPeriod:DesignDay,
  {74a37019-ca3c-4719-8a7e-10617d8e4e88}, !- Handle
  SAN-DIEGO-LINDBERGH-FIEL NOV Clg 0.4% Condns DB=>MCWB, !- Name
  28.3,                                   !- Maximum Dry-Bulb Temperature {C}
  7.8,                                    !- Daily Dry-Bulb Temperature Range {deltaC}
  14.3,                                   !- Humidity Indicating Conditions at Maximum Dry-Bulb
  101277,                                 !- Barometric Pressure {Pa}
  0,                                      !- Wind Speed {m/s}
  247,                                    !- Wind Direction {deg}
  0,                                      !- Sky Clearness
  0,                                      !- Rain Indicator
  0,                                      !- Snow Indicator
  21,                                     !- Day of Month
  11,                                     !- Month
  SummerDesignDay,                        !- Day Type
  0,                                      !- Daylight Saving Time Indicator
  Wetbulb,                                !- Humidity Indicating Type
  ,                                       !- Humidity Indicating Day Schedule Name
  DefaultMultipliers,                     !- Dry-Bulb Temperature Range Modifier Type
  ,                                       !- Dry-Bulb Temperature Range Modifier Schedule Name
  ASHRAETau,                              !- Solar Model Indicator
  ,                                       !- Beam Solar Day Schedule Name
  ,                                       !- Diffuse Solar Day Schedule Name
  0.329,                                  !- ASHRAE Taub {dimensionless}
  2.535;                                  !- ASHRAE Taud {dimensionless}

OS:WeatherFile,
  {58a18e88-2ebf-4cb1-b922-e9f0c3abfa52}, !- Handle
  SAN-DIEGO-LINDBERGH-FIEL,               !- City
  -,                                      !- State Province Region
  USA,                                    !- Country
  Custom-722900,                          !- Data Source
  722900,                                 !- WMO Number
  32.73,                                  !- Latitude {deg}
  -117.17,                                !- Longitude {deg}
  -8,                                     !- Time Zone {hr}
  4,                                      !- Elevation {m}
  file:///C:/Users/mnakajima/Documents/CBECC-Com 2019 Data/EPW/SAN-DIEGO-LINDBERGH_722900_CZ2010.epw, !- Url
  47C406A7;                               !- Checksum

OS:Sizing:Parameters,
  {c861cf17-8a94-4c21-8eae-e12428fe1b37}, !- Handle
  1,                                      !- Heating Sizing Factor
  1;                                      !- Cooling Sizing Factor

OS:Material,
  {e9b82261-5185-4b13-8962-e92457d542e0}, !- Handle
  Gypsum Board - 1/2 in.,                 !- Name
  Smooth,                                 !- Roughness
  0.0127,                                 !- Thickness {m}
  0.158656446866265,                      !- Conductivity {W/m-K}
  640.738534958406,                       !- Density {kg/m3}
  1130.436,                               !- Specific Heat {J/kg-K}
  0.9,                                    !- Thermal Absorptance
  0.7,                                    !- Solar Absorptance
  0.8;                                    !- Visible Absorptance

OS:Material,
  {9e315dc8-0401-41f9-a42d-09a48479bea9}, !- Handle
  Gypsum Board - 5/8 in.,                 !- Name
  MediumRough,                            !- Roughness
  0.016002,                               !- Thickness {m}
  0.158656446866265,                      !- Conductivity {W/m-K}
  640.738534958406,                       !- Density {kg/m3}
  1130.436,                               !- Specific Heat {J/kg-K}
  0.9,                                    !- Thermal Absorptance
  0.7,                                    !- Solar Absorptance
  0.8;                                    !- Visible Absorptance

OS:Material,
  {9b489955-c95b-4483-90ff-c126c91df205}, !- Handle
  Stucco - 7/8 in.,                       !- Name
  MediumRough,                            !- Roughness
  0.022352,                               !- Thickness {m}
  0.700947539880412,                      !- Conductivity {W/m-K}
  1855.09824333832,                       !- Density {kg/m3}
  837.36,                                 !- Specific Heat {J/kg-K}
  0.9,                                    !- Thermal Absorptance
  0.7,                                    !- Solar Absorptance
  0.8;                                    !- Visible Absorptance

OS:Material,
  {5d866222-a27d-4069-b612-f4ce2927a986}, !- Handle
  Carpet - 3/4 in.,                       !- Name
  Smooth,                                 !- Roughness
  0.01905,                                !- Thickness {m}
  0.0455183217255675,                     !- Conductivity {W/m-K}
  288.332340731283,                       !- Density {kg/m3}
  1381.644,                               !- Specific Heat {J/kg-K}
  0.9,                                    !- Thermal Absorptance
  0.7,                                    !- Solar Absorptance
  0.8;                                    !- Visible Absorptance

OS:Material,
  {f68c363b-b5b4-4c29-a13c-882dda1245aa}, !- Handle
  Plywood - 5/8 in.,                      !- Name
  Smooth,                                 !- Roughness
  0.016002,                               !- Thickness {m}
  0.115440002246971,                      !- Conductivity {W/m-K}
  480.553901218804,                       !- Density {kg/m3}
  1884.06;                                !- Specific Heat {J/kg-K}

OS:Material,
  {499269b8-9f28-4a39-b6c6-afc95a2fd712}, !- Handle
  Concrete - 140 lb/ft3 - 4 in.,          !- Name
  Smooth,                                 !- Roughness
  0.1016,                                 !- Thickness {m}
  1.95140333633374,                       !- Conductivity {W/m-K}
  2239.06081041215,                       !- Density {kg/m3}
  921.096;                                !- Specific Heat {J/kg-K}

OS:Material,
  {0db9e895-313f-43ae-8059-28af1d5db6ba}, !- Handle
  Compliance Insulation R0.20,            !- Name
  Smooth,                                 !- Roughness
  0.000810768,                            !- Thickness {m}
  0.0230187710627394,                     !- Conductivity {W/m-K}
  16.0184633739601,                       !- Density {kg/m3}
  1130.436;                               !- Specific Heat {J/kg-K}

OS:Material,
  {ee8a6b62-562c-4423-be3d-6154b7a21bbe}, !- Handle
  Concrete - Solid Grout - 115 lb/ft3 - 8 in., !- Name
  Smooth,                                 !- Roughness
  0.2032,                                 !- Thickness {m}
  1.31570449337553,                       !- Conductivity {W/m-K}
  1858.14175137938,                       !- Density {kg/m3}
  837.36;                                 !- Specific Heat {J/kg-K}

OS:Material,
  {c801a014-8cbb-4ba9-9044-1c6aed727576}, !- Handle
  Compliance Insulation R10.06,           !- Name
  Smooth,                                 !- Roughness
  0.040781732,                            !- Thickness {m}
  0.0230187710627394,                     !- Conductivity {W/m-K}
  16.0184633739601,                       !- Density {kg/m3}
  1130.436;                               !- Specific Heat {J/kg-K}

OS:Material,
  {b12ca1e6-7d9c-4594-9d85-f913cea748f3}, !- Handle
  Compliance Insulation R2.00,            !- Name
  Smooth,                                 !- Roughness
  0.00810768,                             !- Thickness {m}
  0.0230187710627394,                     !- Conductivity {W/m-K}
  16.0184633739601,                       !- Density {kg/m3}
  1130.436;                               !- Specific Heat {J/kg-K}

OS:Material,
  {0c124b3c-7198-4f1a-9453-0037b1de2713}, !- Handle
  Compliance Insulation R0.10,            !- Name
  Smooth,                                 !- Roughness
  0.000405384,                            !- Thickness {m}
  0.0230187710627394,                     !- Conductivity {W/m-K}
  16.0184633739601,                       !- Density {kg/m3}
  1130.436;                               !- Specific Heat {J/kg-K}

OS:Material,
  {c656369f-992c-49a3-acf7-4c6918ff06c4}, !- Handle
  Air - Metal Wall Framing - 16 or 24 in. OC, !- Name
  Smooth,                                 !- Roughness
  0.1397,                                 !- Thickness {m}
  1.22016793979183,                       !- Conductivity {W/m-K}
  1.28147706991681,                       !- Density {kg/m3}
  1004.832;                               !- Specific Heat {J/kg-K}

OS:Material,
  {893aad65-e9b6-4416-8af7-43c21eca9a01}, !- Handle
  Compliance Insulation R7.39,            !- Name
  Smooth,                                 !- Roughness
  0.029957776,                            !- Thickness {m}
  0.0230187710627394,                     !- Conductivity {W/m-K}
  16.0184633739601,                       !- Density {kg/m3}
  1130.436;                               !- Specific Heat {J/kg-K}

OS:Material,
  {0e84b847-ea24-4a4b-ac13-9712352c5fc4}, !- Handle
  Metal Standing Seam - 1/16 in.,         !- Name
  MediumRough,                            !- Roughness
  0.0015875,                              !- Thickness {m}
  2.21534037295537,                       !- Conductivity {W/m-K}
  7820.53418843482,                       !- Density {kg/m3}
  502.416,                                !- Specific Heat {J/kg-K}
  0.85,                                   !- Thermal Absorptance
  0.37,                                   !- Solar Absorptance
  0.85;                                   !- Visible Absorptance

OS:Material,
  {76b95c1b-644a-4624-86c9-7c515d8bf254}, !- Handle
  Compliance Insulation R24.86,           !- Name
  Smooth,                                 !- Roughness
  0.100778564,                            !- Thickness {m}
  0.0230187710627394,                     !- Conductivity {W/m-K}
  16.0184633739601,                       !- Density {kg/m3}
  1130.436,                               !- Specific Heat {J/kg-K}
  0.9,                                    !- Thermal Absorptance
  0.7,                                    !- Solar Absorptance
  0.8;                                    !- Visible Absorptance

OS:Material,
  {86b769a7-61bd-45f8-884b-8e1bc6ff2624}, !- Handle
  Compliance Insulation R19.63,           !- Name
  Smooth,                                 !- Roughness
  0.07957693,                             !- Thickness {m}
  0.0230187710627394,                     !- Conductivity {W/m-K}
  16.0184633739601,                       !- Density {kg/m3}
  1130.436,                               !- Specific Heat {J/kg-K}
  0.9,                                    !- Thermal Absorptance
  0.7,                                    !- Solar Absorptance
  0.8;                                    !- Visible Absorptance

OS:Material,
  {f1858b36-010d-4cbb-8cce-45520eb9b0b9}, !- Handle
  Compliance Insulation R9.83,            !- Name
  MediumRough,                            !- Roughness
  0.03986911,                             !- Thickness {m}
  0.0230187710627394,                     !- Conductivity {W/m-K}
  16.0184633739601,                       !- Density {kg/m3}
  1130.436,                               !- Specific Heat {J/kg-K}
  0.9,                                    !- Thermal Absorptance
  0.7,                                    !- Solar Absorptance
  0.8;                                    !- Visible Absorptance

OS:Material,
  {abaa6262-ba1b-4f9b-bc8e-44890c5a82e4}, !- Handle
  Metal Deck - 1/16 in.,                  !- Name
  MediumRough,                            !- Roughness
  0.0015875,                              !- Thickness {m}
  45.3452482589303,                       !- Conductivity {W/m-K}
  7820.53418843482,                       !- Density {kg/m3}
  502.416,                                !- Specific Heat {J/kg-K}
  0.9,                                    !- Thermal Absorptance
  0.7,                                    !- Solar Absorptance
  0.8;                                    !- Visible Absorptance

OS:Construction,
  {c7e76d20-3c49-4fc6-ac8a-f927bc02ae3e}, !- Handle
  MetalFrameWallU069,                     !- Name
  ,                                       !- Surface Rendering Name
  {9b489955-c95b-4483-90ff-c126c91df205}, !- Layer 1
  {c801a014-8cbb-4ba9-9044-1c6aed727576}, !- Layer 2
  {b12ca1e6-7d9c-4594-9d85-f913cea748f3}, !- Layer 3
  {0db9e895-313f-43ae-8059-28af1d5db6ba}, !- Layer 4
  {0c124b3c-7198-4f1a-9453-0037b1de2713}, !- Layer 5
  {c656369f-992c-49a3-acf7-4c6918ff06c4}, !- Layer 6
  {e9b82261-5185-4b13-8962-e92457d542e0}; !- Layer 7

OS:Construction,
  {69c92329-7d2e-4e51-9458-3d4ea093db88}, !- Handle
  MetalFrameWallU105,                     !- Name
  ,                                       !- Surface Rendering Name
  {7b5c6848-7ed7-45d9-9328-866ea3b8b26d}, !- Layer 1
  {893aad65-e9b6-4416-8af7-43c21eca9a01}, !- Layer 2
  {acece570-17c0-4b70-86be-31167d3a05af}, !- Layer 3
  {ea15bf6e-28a9-4d99-8e09-4bf54bf3e4d7}; !- Layer 4

OS:Material,
  {7b5c6848-7ed7-45d9-9328-866ea3b8b26d}, !- Handle
  Stucco - 7/8 in. 1,                     !- Name
  MediumRough,                            !- Roughness
  0.022352,                               !- Thickness {m}
  0.700947539880412,                      !- Conductivity {W/m-K}
  1855.09824333832,                       !- Density {kg/m3}
  837.36,                                 !- Specific Heat {J/kg-K}
  0.9,                                    !- Thermal Absorptance
  0.7,                                    !- Solar Absorptance
  0.8;                                    !- Visible Absorptance

OS:Material,
  {acece570-17c0-4b70-86be-31167d3a05af}, !- Handle
  Air - Metal Wall Framing - 16 or 24 in. OC 1, !- Name
  Smooth,                                 !- Roughness
  0.1397,                                 !- Thickness {m}
  1.22016793979183,                       !- Conductivity {W/m-K}
  1.28147706991681,                       !- Density {kg/m3}
  1004.832;                               !- Specific Heat {J/kg-K}

OS:Material,
  {ea15bf6e-28a9-4d99-8e09-4bf54bf3e4d7}, !- Handle
  Gypsum Board - 1/2 in. 1,               !- Name
  Smooth,                                 !- Roughness
  0.0127,                                 !- Thickness {m}
  0.158656446866265,                      !- Conductivity {W/m-K}
  640.738534958406,                       !- Density {kg/m3}
  1130.436,                               !- Specific Heat {J/kg-K}
  0.9,                                    !- Thermal Absorptance
  0.7,                                    !- Solar Absorptance
  0.8;                                    !- Visible Absorptance

OS:Construction,
  {52ce902a-828d-4c3f-a5af-c9234b447d81}, !- Handle
  MetalFrameWallInterior,                 !- Name
  ,                                       !- Surface Rendering Name
  {9e315dc8-0401-41f9-a42d-09a48479bea9}, !- Layer 1
  {127988dc-fb33-43bf-a3fd-0a01eb20e1e7}, !- Layer 2
  {9e315dc8-0401-41f9-a42d-09a48479bea9}; !- Layer 3

OS:Material,
  {127988dc-fb33-43bf-a3fd-0a01eb20e1e7}, !- Handle
  Air - Metal Wall Framing - 16 or 24 in. OC 2, !- Name
  Smooth,                                 !- Roughness