
OS:Version,
  {d947ea8a-e652-4bd1-bc8e-908f2bcee5ed}, !- Handle
  2.7.2;                                  !- Version Identifier

OS:SimulationControl,
  {df5171c5-8c8a-4e87-acf7-14fdaba1b863}, !- Handle
  ,                                       !- Do Zone Sizing Calculation
  ,                                       !- Do System Sizing Calculation
  ,                                       !- Do Plant Sizing Calculation
  No,                                     !- Run Simulation for Sizing Periods
  Yes,                                    !- Run Simulation for Weather File Run Periods
  ,                                       !- Loads Convergence Tolerance Value
  ,                                       !- Temperature Convergence Tolerance Value {deltaC}
  FullExterior,                           !- Solar Distribution
  50;                                     !- Maximum Number of Warmup Days

OS:YearDescription,
  {a0de31db-af88-4c6d-88d8-368b86f455a0}, !- Handle
  2009,                                   !- Calendar Year
  ,                                       !- Day of Week for Start Day
  ;                                       !- Is Leap Year

OS:RunPeriod,
  {545caef0-1835-4447-96da-aabc97ee575e}, !- Handle
  SAN-DIEGO-LINDBERGH_722900_CZ2010,      !- Name
  1,                                      !- Begin Month
  1,                                      !- Begin Day of Month
  12,                                     !- End Month
  31,                                     !- End Day of Month
  No,                                     !- Use Weather File Holidays and Special Days
  No,                                     !- Use Weather File Daylight Saving Period
  Yes,                                    !- Apply Weekend Holiday Rule
  ,                                       !- Use Weather File Rain Indicators
  ,                                       !- Use Weather File Snow Indicators
  ;                                       !- Number of Times Runperiod to be Repeated

OS:Site,
  {9397cb13-09a0-4caa-81f4-44f2c4bc5016}, !- Handle
  SAN-DIEGO-LINDBERGH-FIEL Design_Conditions, !- Name
  32.72,                                  !- Latitude {deg}
  -117.17,                                !- Longitude {deg}
  -8,                                     !- Time Zone {hr}
  3.9624,                                 !- Elevation {m}
  ;                                       !- Terrain

OS:SizingPeriod:DesignDay,
  {35a2b240-ab62-4c20-94ca-cf04bc00803a}, !- Handle
  SAN-DIEGO-LINDBERGH-FIEL Ann Htg 99.6% Condns DB, !- Name
  7.2,                                    !- Maximum Dry-Bulb Temperature {C}
  0,                                      !- Daily Dry-Bulb Temperature Range {deltaC}
  7.2,                                    !- Humidity Indicating Conditions at Maximum Dry-Bulb
  101277,                                 !- Barometric Pressure {Pa}
  0.8,                                    !- Wind Speed {m/s}
  337,                                    !- Wind Direction {deg}
  0,                                      !- Sky Clearness
  0,                                      !- Rain Indicator
  0,                                      !- Snow Indicator
  21,                                     !- Day of Month
  1,                                      !- Month
  WinterDesignDay,                        !- Day Type
  0,                                      !- Daylight Saving Time Indicator
  Wetbulb,                                !- Humidity Indicating Type
  ,                                       !- Humidity Indicating Day Schedule Name
  DefaultMultipliers,                     !- Dry-Bulb Temperature Range Modifier Type
  ,                                       !- Dry-Bulb Temperature Range Modifier Schedule Name
  ASHRAEClearSky;                         !- Solar Model Indicator

OS:SizingPeriod:DesignDay,
  {4bbe851c-c994-4a41-9fcb-b663e1810cc8}, !- Handle
  SAN-DIEGO-LINDBERGH-FIEL Ann Clg 0.4% Condns DB=>MCWB, !- Name
  28.3,                                   !- Maximum Dry-Bulb Temperature {C}
  4.1,                                    !- Daily Dry-Bulb Temperature Range {deltaC}
  17.9,                                   !- Humidity Indicating Conditions at Maximum Dry-Bulb
  101277,                                 !- Barometric Pressure {Pa}
  4.1,                                    !- Wind Speed {m/s}
  292,                                    !- Wind Direction {deg}
  0,                                      !- Sky Clearness
  0,                                      !- Rain Indicator
  0,                                      !- Snow Indicator
  21,                                     !- Day of Month
  8,                                      !- Month
  SummerDesignDay,                        !- Day Type
  0,                                      !- Daylight Saving Time Indicator
  Wetbulb,                                !- Humidity Indicating Type
  ,                                       !- Humidity Indicating Day Schedule Name
  DefaultMultipliers,                     !- Dry-Bulb Temperature Range Modifier Type
  ,                                       !- Dry-Bulb Temperature Range Modifier Schedule Name
  ASHRAETau,                              !- Solar Model Indicator
  ,                                       !- Beam Solar Day Schedule Name
  ,                                       !- Diffuse Solar Day Schedule Name
  0.426,                                  !- ASHRAE Taub {dimensionless}
  2.214;                                  !- ASHRAE Taud {dimensionless}

OS:SizingPeriod:DesignDay,
  {0775132f-a471-457b-ad88-37ad0e8d1792}, !- Handle
  SAN-DIEGO-LINDBERGH-FIEL Ann Clg 0.4% Condns DP=>MCDB, !- Name
  23.4,                                   !- Maximum Dry-Bulb Temperature {C}
  4.1,                                    !- Daily Dry-Bulb Temperature Range {deltaC}
  20.5,                                   !- Humidity Indicating Conditions at Maximum Dry-Bulb
  101277,                                 !- Barometric Pressure {Pa}
  0,                                      !- Wind Speed {m/s}
  292,                                    !- Wind Direction {deg}
  0,                                      !- Sky Clearness
  0,                                      !- Rain Indicator
  0,                                      !- Snow Indicator
  21,                                     !- Day of Month
  8,                                      !- Month
  SummerDesignDay,                        !- Day Type
  0,                                      !- Daylight Saving Time Indicator
  Dewpoint,                               !- Humidity Indicating Type
  ,                                       !- Humidity Indicating Day Schedule Name
  DefaultMultipliers,                     !- Dry-Bulb Temperature Range Modifier Type
  ,                                       !- Dry-Bulb Temperature Range Modifier Schedule Name
  ASHRAETau,                              !- Solar Model Indicator
  ,                                       !- Beam Solar Day Schedule Name
  ,                                       !- Diffuse Solar Day Schedule Name
  0.426,                                  !- ASHRAE Taub {dimensionless}
  2.214;                                  !- ASHRAE Taud {dimensionless}

OS:SizingPeriod:DesignDay,
  {d91cfb7b-b3ff-47a5-97ac-6e605eb53c7c}, !- Handle
  SAN-DIEGO-LINDBERGH-FIEL JUN Clg 0.4% Condns DB=>MCWB, !- Name
  27,                                     !- Maximum Dry-Bulb Temperature {C}
  4.9,                                    !- Daily Dry-Bulb Temperature Range {deltaC}
  19.7,                                   !- Humidity Indicating Conditions at Maximum Dry-Bulb
  101277,                                 !- Barometric Pressure {Pa}
  4,                                      !- Wind Speed {m/s}
  292,                                    !- Wind Direction {deg}
  0,                                      !- Sky Clearness
  0,                                      !- Rain Indicator
  0,                                      !- Snow Indicator
  21,                                     !- Day of Month
  6,                                      !- Month
  SummerDesignDay,                        !- Day Type
  0,                                      !- Daylight Saving Time Indicator
  Wetbulb,                                !- Humidity Indicating Type
  ,                                       !- Humidity Indicating Day Schedule Name
  DefaultMultipliers,                     !- Dry-Bulb Temperature Range Modifier Type
  ,                                       !- Dry-Bulb Temperature Range Modifier Schedule Name
  ASHRAETau,                              !- Solar Model Indicator
  ,                                       !- Beam Solar Day Schedule Name
  ,                                       !- Diffuse Solar Day Schedule Name
  0.39,                                   !- ASHRAE Taub {dimensionless}
  2.3;                                    !- ASHRAE Taud {dimensionless}

OS:SizingPeriod:DesignDay,
  {42a916c2-bf8a-429d-a1e1-71bf52b3f965}, !- Handle
  SAN-DIEGO-LINDBERGH-FIEL JUL Clg 0.4% Condns DB=>MCWB, !- Name
  28,                                     !- Maximum Dry-Bulb Temperature {C}
  4.2,                                    !- Daily Dry-Bulb Temperature Range {deltaC}
  20.6,                                   !- Humidity Indicating Conditions at Maximum Dry-Bulb
  101277,                                 !- Barometric Pressure {Pa}
  3.8,                                    !- Wind Speed {m/s}
  270,                                    !- Wind Direction {deg}
  0,                                      !- Sky Clearness
  0,                                      !- Rain Indicator
  0,                                      !- Snow Indicator
  21,                                     !- Day of Month
  7,                                      !- Month
  SummerDesignDay,                        !- Day Type
  0,                                      !- Daylight Saving Time Indicator
  Wetbulb,                                !- Humidity Indicating Type
  ,                                       !- Humidity Indicating Day Schedule Name
  DefaultMultipliers,                     !- Dry-Bulb Temperature Range Modifier Type
  ,                                       !- Dry-Bulb Temperature Range Modifier Schedule Name
  ASHRAETau,                              !- Solar Model Indicator
  ,                                       !- Beam Solar Day Schedule Name
  ,                                       !- Diffuse Solar Day Schedule Name
  0.433,                                  !- ASHRAE Taub {dimensionless}
  2.158;                                  !- ASHRAE Taud {dimensionless}

OS:SizingPeriod:DesignDay,
  {65e802ff-cb1d-46b5-825b-41649776c68c}, !- Handle
  SAN-DIEGO-LINDBERGH-FIEL AUG Clg 0.4% Condns DB=>MCWB, !- Name
  27.9,                                   !- Maximum Dry-Bulb Temperature {C}
  4.1,                                    !- Daily Dry-Bulb Temperature Range {deltaC}
  20.7,                                   !- Humidity Indicating Conditions at Maximum Dry-Bulb
  101277,                                 !- Barometric Pressure {Pa}
  4.6,                                    !- Wind Speed {m/s}
  315,                                    !- Wind Direction {deg}
  0,                                      !- Sky Clearness
  0,                                      !- Rain Indicator
  0,                                      !- Snow Indicator
  21,                                     !- Day of Month
  8,                                      !- Month
  SummerDesignDay,                        !- Day Type
  0,                                      !- Daylight Saving Time Indicator
  Wetbulb,                                !- Humidity Indicating Type
  ,                                       !- Humidity Indicating Day Schedule Name
  DefaultMultipliers,                     !- Dry-Bulb Temperature Range Modifier Type
  ,                                       !- Dry-Bulb Temperature Range Modifier Schedule Name
  ASHRAETau,                              !- Solar Model Indicator
  ,                                       !- Beam Solar Day Schedule Name
  ,                                       !- Diffuse Solar Day Schedule Name
  0.426,                                  !- ASHRAE Taub {dimensionless}
  2.214;                                  !- ASHRAE Taud {dimensionless}

OS:SizingPeriod:DesignDay,
  {d46ed5eb-0676-44a5-bbab-aae73fb8ce79}, !- Handle
  SAN-DIEGO-LINDBERGH-FIEL SEP Clg 0.4% Condns DB=>MCWB, !- Name
  30.6,                                   !- Maximum Dry-Bulb Temperature {C}
  4.6,                                    !- Daily Dry-Bulb Temperature Range {deltaC}
  21.2,                                   !- Humidity Indicating Conditions at Maximum Dry-Bulb
  101277,                                 !- Barometric Pressure {Pa}
  3.2,                                    !- Wind Speed {m/s}
  337,                                    !- Wind Direction {deg}
  0,                                      !- Sky Clearness
  0,                                      !- Rain Indicator
  0,                                      !- Snow Indicator
  21,                                     !- Day of Month
  9,                                      !- Month
  SummerDesignDay,                        !- Day Type
  0,                                      !- Daylight Saving Time Indicator
  Wetbulb,                                !- Humidity Indicating Type
  ,                                       !- Humidity Indicating Day Schedule Name
  DefaultMultipliers,                     !- Dry-Bulb Temperature Range Modifier Type
  ,                                       !- Dry-Bulb Temperature Range Modifier Schedule Name
  ASHRAETau,                              !- Solar Model Indicator
  ,                                       !- Beam Solar Day Schedule Name
  ,                                       !- Diffuse Solar Day Schedule Name
  0.383,                                  !- ASHRAE Taub {dimensionless}
  2.401;                                  !- ASHRAE Taud {dimensionless}

OS:SizingPeriod:DesignDay,
  {d75bdc8c-ed61-4400-a6b8-7cad0bd8c6c5}, !- Handle
  SAN-DIEGO-LINDBERGH-FIEL OCT Clg 0.4% Condns DB=>MCWB, !- Name
  30.3,                                   !- Maximum Dry-Bulb Temperature {C}
  9.2,                                    !- Daily Dry-Bulb Temperature Range {deltaC}
  15.9,                                   !- Humidity Indicating Conditions at Maximum Dry-Bulb
  101277,                                 !- Barometric Pressure {Pa}
  3.5,                                    !- Wind Speed {m/s}
  292,                                    !- Wind Direction {deg}
  0,                                      !- Sky Clearness
  0,                                      !- Rain Indicator
  0,                                      !- Snow Indicator
  21,                                     !- Day of Month
  10,                                     !- Month
  SummerDesignDay,                        !- Day Type
  0,                                      !- Daylight Saving Time Indicator
  Wetbulb,                                !- Humidity Indicating Type
  ,                                       !- Humidity Indicating Day Schedule Name
  DefaultMultipliers,                     !- Dry-Bulb Temperature Range Modifier Type
  ,                                       !- Dry-Bulb Temperature Range Modifier Schedule Name
  ASHRAETau,                              !- Solar Model Indicator
  ,                                       !- Beam Solar Day Schedule Name
  ,                                       !- Diffuse Solar Day Schedule Name
  0.367,                                  !- ASHRAE Taub {dimensionless}
  2.359;                                  !- ASHRAE Taud {dimensionless}

OS:SizingPeriod:DesignDay,
  {8e58807a-b5fd-4d31-b32d-5c78f0d7a685}, !- Handle
  SAN-DIEGO-LINDBERGH-FIEL NOV Clg 0.4% Condns DB=>MCWB, !- Name
  28.3,                                   !- Maximum Dry-Bulb Temperature {C}
  7.8,                                    !- Daily Dry-Bulb Temperature Range {deltaC}
  14.3,                                   !- Humidity Indicating Conditions at Maximum Dry-Bulb
  101277,                                 !- Barometric Pressure {Pa}
  0,                                      !- Wind Speed {m/s}
  247,                                    !- Wind Direction {deg}
  0,                                      !- Sky Clearness
  0,                                      !- Rain Indicator
  0,                                      !- Snow Indicator
  21,                                     !- Day of Month
  11,                                     !- Month
  SummerDesignDay,                        !- Day Type
  0,                                      !- Daylight Saving Time Indicator
  Wetbulb,                                !- Humidity Indicating Type
  ,                                       !- Humidity Indicating Day Schedule Name
  DefaultMultipliers,                     !- Dry-Bulb Temperature Range Modifier Type
  ,                                       !- Dry-Bulb Temperature Range Modifier Schedule Name
  ASHRAETau,                              !- Solar Model Indicator
  ,                                       !- Beam Solar Day Schedule Name
  ,                                       !- Diffuse Solar Day Schedule Name
  0.329,                                  !- ASHRAE Taub {dimensionless}
  2.535;                                  !- ASHRAE Taud {dimensionless}

OS:WeatherFile,
  {5cf2a341-00b4-48fe-a4a3-7fa99da30356}, !- Handle
  SAN-DIEGO-LINDBERGH-FIEL,               !- City
  -,                                      !- State Province Region
  USA,                                    !- Country
  Custom-722900,                          !- Data Source
  722900,                                 !- WMO Number
  32.73,                                  !- Latitude {deg}
  -117.17,                                !- Longitude {deg}
  -8,                                     !- Time Zone {hr}
  4,                                      !- Elevation {m}
  file:///C:/Users/mnakajima/Documents/CBECC-Com 2019 Data/EPW/SAN-DIEGO-LINDBERGH_722900_CZ2010.epw, !- Url
  47C406A7;                               !- Checksum

OS:Sizing:Parameters,
  {90075e21-334b-4ac9-a206-2df683b5b198}, !- Handle
  1,                                      !- Heating Sizing Factor
  1;                                      !- Cooling Sizing Factor

OS:Material,
  {d82e7da3-3163-4adb-af23-1fe6a36f8f18}, !- Handle
  Gypsum Board - 1/2 in.,                 !- Name
  MediumRough,                            !- Roughness
  0.0127,                                 !- Thickness {m}
  0.158656446866265,                      !- Conductivity {W/m-K}
  640.738534958406,                       !- Density {kg/m3}
  1130.436,                               !- Specific Heat {J/kg-K}
  0.9,                                    !- Thermal Absorptance
  0.7,                                    !- Solar Absorptance
  0.8;                                    !- Visible Absorptance

OS:Material,
  {56e25b31-8da7-4f68-8873-5b4d415acf11}, !- Handle
  Gypsum Board - 5/8 in.,                 !- Name
  Smooth,                                 !- Roughness
  0.016002,                               !- Thickness {m}
  0.158656446866265,                      !- Conductivity {W/m-K}
  640.738534958406,                       !- Density {kg/m3}
  1130.436,                               !- Specific Heat {J/kg-K}
  0.9,                                    !- Thermal Absorptance
  0.7,                                    !- Solar Absorptance
  0.8;                                    !- Visible Absorptance

OS:Material,
  {c2bda55c-d037-4c9e-ba79-b5849a31f602}, !- Handle
  Stucco - 7/8 in.,                       !- Name
  MediumRough,                            !- Roughness
  0.022352,                               !- Thickness {m}
  0.700947539880412,                      !- Conductivity {W/m-K}
  1855.09824333832,                       !- Density {kg/m3}
  837.36,                                 !- Specific Heat {J/kg-K}
  0.9,                                    !- Thermal Absorptance
  0.7,                                    !- Solar Absorptance
  0.8;                                    !- Visible Absorptance

OS:Material,
  {8c6975f8-0194-415c-928c-75ef18c23f75}, !- Handle
  Carpet - 3/4 in.,                       !- Name
  Smooth,                                 !- Roughness
  0.01905,                                !- Thickness {m}
  0.0455183217255675,                     !- Conductivity {W/m-K}
  288.332340731283,                       !- Density {kg/m3}
  1381.644,                               !- Specific Heat {J/kg-K}
  0.9,                                    !- Thermal Absorptance
  0.7,                                    !- Solar Absorptance
  0.8;                                    !- Visible Absorptance

OS:Material,
  {b6eaf219-8a72-49aa-95cf-92f642006d68}, !- Handle
  Plywood - 5/8 in.,                      !- Name
  Smooth,                                 !- Roughness
  0.016002,                               !- Thickness {m}
  0.115440002246971,                      !- Conductivity {W/m-K}
  480.553901218804,                       !- Density {kg/m3}
  1884.06;                                !- Specific Heat {J/kg-K}

OS:Material,
  {aaf3e88b-7edc-418d-a923-34f8afbbef31}, !- Handle
  Compliance Insulation R1.54,            !- Name
  Smooth,                                 !- Roughness
  0.0062429136,                           !- Thickness {m}
  0.0230187710627394,                     !- Conductivity {W/m-K}
  16.0184633739601,                       !- Density {kg/m3}
  1130.436;                               !- Specific Heat {J/kg-K}

OS:Material,
  {1b768a8d-16fc-41e6-b5c9-9834bb660e73}, !- Handle
  Compliance Insulation R4x,              !- Name
  Smooth,                                 !- Roughness
  0.01621536,                             !- Thickness {m}
  0.0230187710627394,                     !- Conductivity {W/m-K}
  16.0184633739601,                       !- Density {kg/m3}
  1130.436;                               !- Specific Heat {J/kg-K}

OS:Material,
  {67fb4345-59c0-4ff6-b46c-2eebe573cab7}, !- Handle
  Compliance Insulation R1.35,            !- Name
  Smooth,                                 !- Roughness
  0.005472684,                            !- Thickness {m}
  0.0230187710627394,                     !- Conductivity {W/m-K}
  16.0184633739601,                       !- Density {kg/m3}
  1130.436;                               !- Specific Heat {J/kg-K}

OS:Material:NoMass,
  {e7d73096-80d5-476c-9016-3b73980998b0}, !- Handle
  WoodFrameWall16inOC R11.25,             !- Name
  Smooth,                                 !- Roughness
  1.26865197459958;                       !- Thermal Resistance {m2-K/W}

OS:Material,
  {22a09193-8ea2-4b82-943b-0a720cc38e4c}, !- Handle
  Concrete - 140 lb/ft3 - 10 in.,         !- Name
  Smooth,                                 !- Roughness
  0.254,                                  !- Thickness {m}
  1.95140333633374,                       !- Conductivity {W/m-K}
  2239.06081041215,                       !- Density {kg/m3}
  921.096,                                !- Specific Heat {J/kg-K}
  0.9,                                    !- Thermal Absorptance
  0.7,                                    !- Solar Absorptance
  0.8;                                    !- Visible Absorptance

OS:Material:NoMass,
  {d39f3b8b-ba41-4a33-870a-4179326dc1b7}, !- Handle
  WoodRoof16OCCavInsR38,                  !- Name
  Smooth,                                 !- Roughness
  4.68171312301043,                       !- Thermal Resistance {m2-K/W}
  0.9,                                    !- Thermal Absorptance
  0.7,                                    !- Solar Absorptance
  0.8;                                    !- Visible Absorptance

OS:Material,
  {26c45180-0737-4c8f-b906-6aa1b47ee176}, !- Handle
  Building Paper - 1/16 in.,              !- Name
  Smooth,                                 !- Roughness
  0.001524,                               !- Thickness {m}
  0.28851346888411,                       !- Conductivity {W/m-K}
  96.1107802437608,                       !- Density {kg/m3}
  1256.04;                                !- Specific Heat {J/kg-K}

OS:Material,
  {c498a58c-9896-4b49-9ea1-a44ef1683c40}, !- Handle
  Fiberboard sheathing - 1/2 in.,         !- Name
  Smooth,                                 !- Roughness
  0.0127,                                 !- Thickness {m}
  0.0706139743879526,                     !- Conductivity {W/m-K}
  399.820845814045,                       !- Density {kg/m3}
  1297.908;                               !- Specific Heat {J/kg-K}

OS:Material,
  {f20f0e5a-3f5e-437a-b908-7614bbcef543}, !- Handle
  Roofing felt - 1/8 in.,                 !- Name
  MediumRough,                            !- Roughness
  0.001524,                               !- Thickness {m}
  1.19714916872909,                       !- Conductivity {W/m-K}
  230.665872585026,                       !- Density {kg/m3}
  1256.04,                                !- Specific Heat {J/kg-K}
  0.85,                                   !- Thermal Absorptance
  0.92,                                   !- Solar Absorptance
  0.85;                                   !- Visible Absorptance

OS:Material:NoMass,
  {d9c5f630-254c-4017-9d7a-6e3c6fc77dd7}, !- Handle
  WoodFloor16inOCCavInsR0,                !- Name
  Smooth,                                 !- Roughness
  0.162021368987722;                      !- Thermal Resistance {m2-K/W}

OS:Material,
  {61df8b02-11fb-4b67-b070-399523989187}, !- Handle
  Stone - 1 in.,                          !- Name
  MediumRough,                            !- Roughness
  0.0254,                                 !- Thickness {m}
  1.80342552235899,                       !- Conductivity {W/m-K}
  2239.06081041215,                       !- Density {kg/m3}
  921.096,                                !- Specific Heat {J/kg-K}
  0.85,                                   !- Thermal Absorptance
  0.92,                                   !- Solar Absorptance
  0.85;                                   !- Visible Absorptance

OS:Material:NoMass,
  {48c3b3ec-4619-4207-90c0-8cb63cd1f3a4}, !- Handle
  WoodFraming16inOC,                      !- Name
  Smooth,                                 !- Roughness
  0.14969365612996;                       !- Thermal Resistance {m2-K/W}

OS:Material,
  {5b3110b5-4d48-4b9b-b90c-a30d4d2d01a4}, !- Handle
  Concrete - 140 lb/ft3 - 8 in.,          !- Name
  Smooth,                                 !- Roughness
  0.2032,                                 !- Thickness {m}
  1.95140333633374,                       !- Conductivity {W/m-K}
  2239.06081041215,                       !- Density {kg/m3}
  921.096;                                !- Specific Heat {J/kg-K}

OS:Material,
  {46b78278-e4d6-4767-94f8-686a0f3432a3}, !- Handle
  Concrete - 140 lb/ft3 - 4 in.,          !- Name
  Smooth,                                 !- Roughness
  0.1016,                                 !- Thickness {m}
  1.95140333633374,                       !- Conductivity {W/m-K}
  2239.06081041215,                       !- Density {kg/m3}
  921.096;                                !- Specific Heat {J/kg-K}

OS:Material,
  {12fddd1e-544a-4d86-8bf2-05d4d1f266e1}, !- Handle
  Compliance Insulation R0.20,            !- Name
  Smooth,                                 !- Roughness
  0.000810768,                            !- Thickness {m}
  0.0230187710627394,                     !- Conductivity {W/m-K}
  16.0184633739601,                       !- Density {kg/m3}
  1130.436;                               !- Specific Heat {J/kg-K}

OS:Material:NoMass,
  {1be172c5-6b4b-4bfd-8f09-7aa8702e8ca8}, !- Handle
  WoodFrameWall16inOCCavInsR5,            !- Name
  Smooth,                                 !- Roughness
  0.898917449467759;                      !- Thermal Resistance {m2-K/W}

OS:Material,
  {257e4785-c344-43b9-be41-e72f86cca7df}, !- Handle
  Compliance Insulation R6.00,            !- Name
  Smooth,                                 !- Roughness
  0.02432304,                             !- Thickness {m}
  0.0230187710627394,                     !- Conductivity {W/m-K}
  16.0184633739601,                       !- Density {kg/m3}
  1130.436;                               !- Specific Heat {J/kg-K}

OS:Material,
  {5e896c32-4fef-4fb6-8d84-e1f87536a5c7}, !- Handle
  Compliance Insulation R2.15,            !- Name
  Smooth,                                 !- Roughness
  0.008715756,                            !- Thickness {m}
  0.0230187710627394,                     !- Conductivity {W/m-K}
  16.0184633739601,                       !- Density {kg/m3}
  1130.436;                               !- Specific Heat {J/kg-K}

OS:Material,
  {208b9431-311c-4df3-b5bc-b469c7796f62}, !- Handle
  Compliance Insulation R0.50,            !- Name
  Smooth,                                 !- Roughness
  0.00202692,                             !- Thickness {m}
  0.0230187710627394,                     !- Conductivity {W/m-K}
  16.0184633739601,                       !- Density {kg/m3}
  1130.436;                               !- Specific Heat {J/kg-K}

OS:Material,
  {e19ff1b6-a1a1-4f1b-81ca-89758b1dd867}, !- Handle
  Compliance Insulation R10.00,           !- Name
  Smooth,                                 !- Roughness
  0.0405384,                              !- Thickness {m}
  0.0230187710627394,                     !- Conductivity {W/m-K}
  16.0184633739601,                       !- Density {kg/m3}
  1130.436;                               !- Specific Heat {J/kg-K}

OS:Construction,
  {b3854981-6dea-4b5c-b644-2637dbfc9aa3}, !- Handle
  ResWoodWallU059,                        !- Name