
Version,
  9.0;                                    !- Version Identifier

Timestep,
  4;                                      !- Number of Timesteps per Hour

Building,
  Building 1,                             !- Name
  0,                                      !- North Axis {deg}
  ,                                       !- Terrain
  ,                                       !- Loads Convergence Tolerance Value
  ,                                       !- Temperature Convergence Tolerance Value {deltaC}
  FullExterior,                           !- Solar Distribution
  50,                                     !- Maximum Number of Warmup Days
  ;                                       !- Minimum Number of Warmup Days

Zone,
  Thermal Zone: F1 Business Center,       !- Name
  ,                                       !- Direction of Relative North {deg}
  ,                                       !- X Origin {m}
  ,                                       !- Y Origin {m}
  ,                                       !- Z Origin {m}
  ,                                       !- Type
  1,                                      !- Multiplier
  ,                                       !- Ceiling Height {m}
  ,                                       !- Volume {m3}
  ,                                       !- Floor Area {m2}
  ,                                       !- Zone Inside Convection Algorithm
  ;                                       !- Zone Outside Convection Algorithm

BuildingSurface:Detailed,
  Surface 42,                             !- Name
  Floor,                                  !- Surface Type
  OtherFloor,                             !- Construction Name
  Thermal Zone: F1 Business Center,       !- Zone Name
  Surface,                                !- Outside Boundary Condition
  Surface 42 Reversed,                    !- Outside Boundary Condition Object
  NoSun,                                  !- Sun Exposure
  NoWind,                                 !- Wind Exposure
  ,                                       !- View Factor to Ground
  ,                                       !- Number of Vertices
  26.8224, 9.144, 0,                      !- X,Y,Z Vertex 1 {m}
  26.8224, 0, 0,                          !- X,Y,Z Vertex 2 {m}
  21.9456, 0, 0,                          !- X,Y,Z Vertex 3 {m}
  21.9456, 9.144, 0;                      !- X,Y,Z Vertex 4 {m}

BuildingSurface:Detailed,
  Surface 43,                             !- Name
  Wall,                                   !- Surface Type
  MetalFrameWallInterior,                 !- Construction Name
  Thermal Zone: F1 Business Center,       !- Zone Name
  Surface,                                !- Outside Boundary Condition
  Surface 43 Reversed,                    !- Outside Boundary Condition Object
  NoSun,                                  !- Sun Exposure
  NoWind,                                 !- Wind Exposure
  ,                                       !- View Factor to Ground
  ,                                       !- Number of Vertices
  26.8224, 9.144, 3.048,                  !- X,Y,Z Vertex 1 {m}
  26.8224, 9.144, 0,                      !- X,Y,Z Vertex 2 {m}
  21.9456, 9.144, 0,                      !- X,Y,Z Vertex 3 {m}
  21.9456, 9.144, 3.048;                  !- X,Y,Z Vertex 4 {m}

BuildingSurface:Detailed,
  Surface 44,                             !- Name
  Wall,                                   !- Surface Type
  MetalFrameWallInterior,                 !- Construction Name
  Thermal Zone: F1 Business Center,       !- Zone Name
  Surface,                                !- Outside Boundary Condition
  Surface 44 Reversed,                    !- Outside Boundary Condition Object
  NoSun,                                  !- Sun Exposure
  NoWind,                                 !- Wind Exposure
  ,                                       !- View Factor to Ground
  ,                                       !- Number of Vertices
  26.8224, 8.5344, 3.048,                 !- X,Y,Z Vertex 1 {m}
  26.8224, 8.5344, 0,                     !- X,Y,Z Vertex 2 {m}
  26.8224, 9.144, 0,                      !- X,Y,Z Vertex 3 {m}
  26.8224, 9.144, 3.048;                  !- X,Y,Z Vertex 4 {m}

BuildingSurface:Detailed,
  Surface 45,                             !- Name
  Wall,                                   !- Surface Type
  MetalFrameWallInterior,                 !- Construction Name
  Thermal Zone: F1 Business Center,       !- Zone Name
  Surface,                                !- Outside Boundary Condition
  Surface 45 Reversed,                    !- Outside Boundary Condition Object
  NoSun,                                  !- Sun Exposure
  NoWind,                                 !- Wind Exposure
  ,                                       !- View Factor to Ground
  ,                                       !- Number of Vertices
  26.8224, 7.0104, 3.048,                 !- X,Y,Z Vertex 1 {m}
  26.8224, 7.0104, 0,                     !- X,Y,Z Vertex 2 {m}
  26.8224, 8.5344, 0,                     !- X,Y,Z Vertex 3 {m}
  26.8224, 8.5344, 3.048;                 !- X,Y,Z Vertex 4 {m}

BuildingSurface:Detailed,
  Surface 46,                             !- Name
  Wall,                                   !- Surface Type
  MetalFrameWallInterior,                 !- Construction Name
  Thermal Zone: F1 Business Center,       !- Zone Name
  Surface,                                !- Outside Boundary Condition
  Surface 46 Reversed,                    !- Outside Boundary Condition Object
  NoSun,                                  !- Sun Exposure
  NoWind,                                 !- Wind Exposure
  ,                                       !- View Factor to Ground
  ,                                       !- Number of Vertices
  26.8224, 5.4864, 3.048,                 !- X,Y,Z Vertex 1 {m}
  26.8224, 5.4864, 0,                     !- X,Y,Z Vertex 2 {m}
  26.8224, 7.0104, 0,                     !- X,Y,Z Vertex 3 {m}
  26.8224, 7.0104, 3.048;                 !- X,Y,Z Vertex 4 {m}

BuildingSurface:Detailed,
  Surface 47,                             !- Name
  Wall,                                   !- Surface Type
  MetalFrameWallInterior,                 !- Construction Name
  Thermal Zone: F1 Business Center,       !- Zone Name
  Surface,                                !- Outside Boundary Condition
  Surface 47 Reversed,                    !- Outside Boundary Condition Object
  NoSun,                                  !- Sun Exposure
  NoWind,                                 !- Wind Exposure
  ,                                       !- View Factor to Ground
  ,                                       !- Number of Vertices
  26.8224, 0, 3.048,                      !- X,Y,Z Vertex 1 {m}
  26.8224, 0, 0,                          !- X,Y,Z Vertex 2 {m}
  26.8224, 5.4864, 0,                     !- X,Y,Z Vertex 3 {m}
  26.8224, 5.4864, 3.048;                 !- X,Y,Z Vertex 4 {m}

BuildingSurface:Detailed,
  Surface 48,                             !- Name
  Wall,                                   !- Surface Type
  NonResMetalFramedWall,                  !- Construction Name
  Thermal Zone: F1 Business Center,       !- Zone Name
  Outdoors,                               !- Outside Boundary Condition
  ,                                       !- Outside Boundary Condition Object
  SunExposed,                             !- Sun Exposure
  WindExposed,                            !- Wind Exposure
  ,                                       !- View Factor to Ground
  ,                                       !- Number of Vertices
  21.9456, 0, 3.048,                      !- X,Y,Z Vertex 1 {m}
  21.9456, 0, 0,                          !- X,Y,Z Vertex 2 {m}
  26.8224, 0, 0,                          !- X,Y,Z Vertex 3 {m}
  26.8224, 0, 3.048;                      !- X,Y,Z Vertex 4 {m}

FenestrationSurface:Detailed,
  Sub Surface 8,                          !- Name
  Window,                                 !- Surface Type
  Nonres Fixed Window,                    !- Construction Name
  Surface 48,                             !- Building Surface Name
  ,                                       !- Outside Boundary Condition Object
  ,                                       !- View Factor to Ground
  ,                                       !- Frame and Divider Name
  ,                                       !- Multiplier
  ,                                       !- Number of Vertices
  21.97098984, 0, 1.222409544,            !- X,Y,Z Vertex 1 {m}
  21.97098984, 0, 0.9144,                 !- X,Y,Z Vertex 2 {m}
  26.79701016, 0, 0.9144,                 !- X,Y,Z Vertex 3 {m}
  26.79701016, 0, 1.222409544;            !- X,Y,Z Vertex 4 {m}

BuildingSurface:Detailed,
  Surface 49,                             !- Name
  Wall,                                   !- Surface Type
  MetalFrameWallInterior,                 !- Construction Name
  Thermal Zone: F1 Business Center,       !- Zone Name
  Surface,                                !- Outside Boundary Condition
  Surface 49 Reversed,                    !- Outside Boundary Condition Object
  NoSun,                                  !- Sun Exposure
  NoWind,                                 !- Wind Exposure
  ,                                       !- View Factor to Ground
  ,                                       !- Number of Vertices
  21.9456, 9.144, 3.048,                  !- X,Y,Z Vertex 1 {m}
  21.9456, 9.144, 0,                      !- X,Y,Z Vertex 2 {m}
  21.9456, 0, 0,                          !- X,Y,Z Vertex 3 {m}
  21.9456, 0, 3.048;                      !- X,Y,Z Vertex 4 {m}

People,
  F1 Business Center People,              !- Name
  Thermal Zone: F1 Business Center,       !- Zone or ZoneList Name
  RetailOccupancy,                        !- Number of People Schedule Name
  People/Area,                            !- Number of People Calculation Method
  ,                                       !- Number of People
  0.0538195520835486,                     !- People per Zone Floor Area {person/m2}
  ,                                       !- Zone Floor Area per Person {m2/person}
  0.3,                                    !- Fraction Radiant
  0.555555555555556,                      !- Sensible Heat Fraction
  F1 Business Center People Activity Level; !- Activity Level Schedule Name

Lights,
  F1 Business Center Regulated Lights,    !- Name
  Thermal Zone: F1 Business Center,       !- Zone or ZoneList Name
  RetailLights,                           !- Schedule Name
  Watts/Area,                             !- Design Level Calculation Method
  ,                                       !- Lighting Level {W}
  6.45834625002582,                       !- Watts per Zone Floor Area {W/m2}
  ,                                       !- Watts per Person {W/person}
  0,                                      !- Return Air Fraction
  0.58,                                   !- Fraction Radiant
  ,                                       !- Fraction Visible
  1,                                      !- Fraction Replaceable
  ComplianceLtg;                          !- End-Use Subcategory

Schedule:Year,
  RetailLights,                           !- Name
  Fraction,                               !- Schedule Type Limits Name
  RetailLightsWk,                         !- Schedule:Week Name 1
  1,                                      !- Start Month 1
  1,                                      !- Start Day 1
  12,                                     !- End Month 1
  31;                                     !- End Day 1

ScheduleTypeLimits,
  Fraction,                               !- Name
  0,                                      !- Lower Limit Value {BasedOnField A3}
  1,                                      !- Upper Limit Value {BasedOnField A3}
  Continuous,                             !- Numeric Type
  dimensionless;                          !- Unit Type

Schedule:Week:Daily,
  RetailLightsWk,                         !- Name
  RetailLightsSun,                        !- Sunday Schedule:Day Name
  RetailLightsWD,                         !- Monday Schedule:Day Name
  RetailLightsWD,                         !- Tuesday Schedule:Day Name
  RetailLightsWD,                         !- Wednesday Schedule:Day Name
  RetailLightsWD,                         !- Thursday Schedule:Day Name
  RetailLightsWD,                         !- Friday Schedule:Day Name
  RetailLightsSat,                        !- Saturday Schedule:Day Name
  RetailLightsSun,                        !- Holiday Schedule:Day Name
  OnDay,                                  !- SummerDesignDay Schedule:Day Name
  OffDay,                                 !- WinterDesignDay Schedule:Day Name
  RetailLightsSun,                        !- CustomDay1 Schedule:Day Name
  RetailLightsSun;                        !- CustomDay2 Schedule:Day Name

Schedule:Day:Interval,
  RetailLightsSun,                        !- Name
  Fraction,                               !- Schedule Type Limits Name
  No,                                     !- Interpolate to Timestep
  01:00,                                  !- Time 1 {hh:mm}
  0.05,                                   !- Value Until Time 1
  02:00,                                  !- Time 2 {hh:mm}
  0.05,                                   !- Value Until Time 2
  03:00,                                  !- Time 3 {hh:mm}
  0.05,                                   !- Value Until Time 3
  04:00,                                  !- Time 4 {hh:mm}
  0.05,                                   !- Value Until Time 4
  05:00,                                  !- Time 5 {hh:mm}
  0.05,                                   !- Value Until Time 5
  06:00,                                  !- Time 6 {hh:mm}
  0.05,                                   !- Value Until Time 6
  07:00,                                  !- Time 7 {hh:mm}
  0.05,                                   !- Value Until Time 7
  08:00,                                  !- Time 8 {hh:mm}
  0.05,                                   !- Value Until Time 8
  09:00,                                  !- Time 9 {hh:mm}
  0.1,                                    !- Value Until Time 9
  10:00,                                  !- Time 10 {hh:mm}
  0.1,                                    !- Value Until Time 10
  11:00,                                  !- Time 11 {hh:mm}
  0.4,                                    !- Value Until Time 11
  12:00,                                  !- Time 12 {hh:mm}
  0.4,                                    !- Value Until Time 12
  13:00,                                  !- Time 13 {hh:mm}
  0.55,                                   !- Value Until Time 13
  14:00,                                  !- Time 14 {hh:mm}
  0.55,                                   !- Value Until Time 14
  15:00,                                  !- Time 15 {hh:mm}
  0.55,                                   !- Value Until Time 15
  16:00,                                  !- Time 16 {hh:mm}
  0.55,                                   !- Value Until Time 16
  17:00,                                  !- Time 17 {hh:mm}
  0.55,                                   !- Value Until Time 17
  18:00,                                  !- Time 18 {hh:mm}
  0.4,                                    !- Value Until Time 18
  19:00,                                  !- Time 19 {hh:mm}
  0.2,                                    !- Value Until Time 19
  20:00,                                  !- Time 20 {hh:mm}
  0.05,                                   !- Value Until Time 20
  21:00,                                  !- Time 21 {hh:mm}
  0.05,                                   !- Value Until Time 21
  22:00,                                  !- Time 22 {hh:mm}
  0.05,                                   !- Value Until Time 22
  23:00,                                  !- Time 23 {hh:mm}
  0.05,                                   !- Value Until Time 23
  24:00,                                  !- Time 24 {hh:mm}
  0.05;                                   !- Value Until Time 24

Schedule:Day:Interval,
  RetailLightsWD,                         !- Name
  Fraction,                               !- Schedule Type Limits Name
  No,                                     !- Interpolate to Timestep
  01:00,                                  !- Time 1 {hh:mm}
  0.05,                                   !- Value Until Time 1
  02:00,                                  !- Time 2 {hh:mm}
  0.05,                                   !- Value Until Time 2
  03:00,                                  !- Time 3 {hh:mm}
  0.05,                                   !- Value Until Time 3
  04:00,                                  !- Time 4 {hh:mm}
  0.05,                                   !- Value Until Time 4
  05:00,                                  !- Time 5 {hh:mm}
  0.05,                                   !- Value Until Time 5
  06:00,                                  !- Time 6 {hh:mm}
  0.05,                                   !- Value Until Time 6
  07:00,                                  !- Time 7 {hh:mm}
  0.05,                                   !- Value Until Time 7
  08:00,                                  !- Time 8 {hh:mm}
  0.2,                                    !- Value Until Time 8
  09:00,                                  !- Time 9 {hh:mm}
  0.5,                                    !- Value Until Time 9
  10:00,                                  !- Time 10 {hh:mm}
  0.85,                                   !- Value Until Time 10
  11:00,                                  !- Time 11 {hh:mm}
  0.85,                                   !- Value Until Time 11
  12:00,                                  !- Time 12 {hh:mm}
  0.85,                                   !- Value Until Time 12
  13:00,                                  !- Time 13 {hh:mm}
  0.85,                                   !- Value Until Time 13
  14:00,                                  !- Time 14 {hh:mm}
  0.85,                                   !- Value Until Time 14
  15:00,                                  !- Time 15 {hh:mm}
  0.85,                                   !- Value Until Time 15
  16:00,                                  !- Time 16 {hh:mm}
  0.85,                                   !- Value Until Time 16
  17:00,                                  !- Time 17 {hh:mm}
  0.85,                                   !- Value Until Time 17
  18:00,                                  !- Time 18 {hh:mm}
  0.85,                                   !- Value Until Time 18
  19:00,                                  !- Time 19 {hh:mm}
  0.55,                                   !- Value Until Time 19
  20:00,                                  !- Time 20 {hh:mm}
  0.55,                                   !- Value Until Time 20
  21:00,                                  !- Time 21 {hh:mm}
  0.5,                                    !- Value Until Time 21
  22:00,                                  !- Time 22 {hh:mm}
  0.2,                                    !- Value Until Time 22
  23:00,                                  !- Time 23 {hh:mm}
  0.05,                                   !- Value Until Time 23
  24:00,                                  !- Time 24 {hh:mm}
  0.05;                                   !- Value Until Time 24

Schedule:Day:Interval,
  RetailLightsSat,                        !- Name
  Fraction,                               !- Schedule Type Limits Name
  No,                                     !- Interpolate to Timestep
  01:00,                                  !- Time 1 {hh:mm}
  0.05,                                   !- Value Until Time 1
  02:00,                                  !- Time 2 {hh:mm}
  0.05,                                   !- Value Until Time 2
  03:00,                                  !- Time 3 {hh:mm}
  0.05,                                   !- Value Until Time 3
  04:00,                                  !- Time 4 {hh:mm}
  0.05,                                   !- Value Until Time 4
  05:00,                                  !- Time 5 {hh:mm}
  0.05,                                   !- Value Until Time 5
  06:00,                                  !- Time 6 {hh:mm}
  0.05,                                   !- Value Until Time 6
  07:00,                                  !- Time 7 {hh:mm}
  0.05,                                   !- Value Until Time 7
  08:00,                                  !- Time 8 {hh:mm}
  0.1,                                    !- Value Until Time 8
  09:00,                                  !- Time 9 {hh:mm}
  0.3,                                    !- Value Until Time 9
  10:00,                                  !- Time 10 {hh:mm}
  0.55,                                   !- Value Until Time 10
  11:00,                                  !- Time 11 {hh:mm}
  0.85,                                   !- Value Until Time 11
  12:00,                                  !- Time 12 {hh:mm}
  0.85,                                   !- Value Until Time 12
  13:00,                                  !- Time 13 {hh:mm}
  0.85,                                   !- Value Until Time 13
  14:00,                                  !- Time 14 {hh:mm}
  0.85,                                   !- Value Until Time 14
  15:00,                                  !- Time 15 {hh:mm}
  0.85,                                   !- Value Until Time 15
  16:00,                                  !- Time 16 {hh:mm}
  0.85,                                   !- Value Until Time 16
  17:00,                                  !- Time 17 {hh:mm}
  0.85,                                   !- Value Until Time 17
  18:00,                                  !- Time 18 {hh:mm}
  0.85,                                   !- Value Until Time 18
  19:00,                                  !- Time 19 {hh:mm}
  0.5,                                    !- Value Until Time 19
  20:00,                                  !- Time 20 {hh:mm}
  0.3,                                    !- Value Until Time 20
  21:00,                                  !- Time 21 {hh:mm}
  0.3,                                    !- Value Until Time 21
  22:00,                                  !- Time 22 {hh:mm}
  0.1,                                    !- Value Until Time 22
  23:00,                                  !- Time 23 {hh:mm}
  0.05,                                   !- Value Until Time 23
  24:00,                                  !- Time 24 {hh:mm}
  0.05;                                   !- Value Until Time 24

Schedule:Day:Interval,
  OnDay,                                  !- Name
  Fraction,                               !- Schedule Type Limits Name
  No,                                     !- Interpolate to Timestep
  01:00,                                  !- Time 1 {hh:mm}
  1,                                      !- Value Until Time 1
  02:00,                                  !- Time 2 {hh:mm}
  1,                                      !- Value Until Time 2
  03:00,                                  !- Time 3 {hh:mm}
  1,                                      !- Value Until Time 3
  04:00,                                  !- Time 4 {hh:mm}
  1,                                      !- Value Until Time 4
  05:00,                                  !- Time 5 {hh:mm}
  1,                                      !- Value Until Time 5
  06:00,                                  !- Time 6 {hh:mm}
  1,                                      !- Value Until Time 6
  07:00,                                  !- Time 7 {hh:mm}
  1,                                      !- Value Until Time 7
  08:00,                                  !- Time 8 {hh:mm}
  1,                                      !- Value Until Time 8
  09:00,                                  !- Time 9 {hh:mm}
  1,                                      !- Value Until Time 9
  10:00,                                  !- Time 10 {hh:mm}
  1,                                      !- Value Until Time 10
  11:00,                                  !- Time 11 {hh:mm}
  1,                                      !- Value Until Time 11
  12:00,                                  !- Time 12 {hh:mm}
  1,                                      !- Value Until Time 12
  13:00,                                  !- Time 13 {hh:mm}
  1,                                      !- Value Until Time 13
  14:00,                                  !- Time 14 {hh:mm}
  1,                                      !- Value Until Time 14
  15:00,                                  !- Time 15 {hh:mm}
  1,                                      !- Value Until Time 15
  16:00,                                  !- Time 16 {hh:mm}
  1,                                      !- Value Until Time 16
  17:00,                                  !- Time 17 {hh:mm}
  1,                                      !- Value Until Time 17
  18:00,                                  !- Time 18 {hh:mm}
  1,                                      !- Value Until Time 18
  19:00,                                  !- Time 19 {hh:mm}
  1,                                      !- Value Until Time 19
  20:00,                                  !- Time 20 {hh:mm}
  1,                                      !- Value Until Time 20
  21:00,                                  !- Time 21 {hh:mm}
  1,                                      !- Value Until Time 21
  22:00,                                  !- Time 22 {hh:mm}
  1,                                      !- Value Until Time 22
  23:00,                                  !- Time 23 {hh:mm}
  1,                                      !- Value Until Time 23
  24:00,                                  !- Time 24 {hh:mm}
  1;                                      !- Value Until Time 24

Schedule:Day:Interval,
  OffDay,                                 !- Name
  Fraction,                               !- Schedule Type Limits Name
  No,                                     !- Interpolate to Timestep
  01:00,                                  !- Time 1 {hh:mm}
  0,                                      !- Value Until Time 1
  02:00,                                  !- Time 2 {hh:mm}
  0,                                      !- Value Until Time 2
  03:00,                                  !- Time 3 {hh:mm}
  0,                                      !- Value Until Time 3
  04:00,                                  !- Time 4 {hh:mm}
  0,                                      !- Value Until Time 4
  05:00,                                  !- Time 5 {hh:mm}
  0,                                      !- Value Until Time 5
  06:00,                                  !- Time 6 {hh:mm}
  0,                                      !- Value Until Time 6
  07:00,                                  !- Time 7 {hh:mm}
  0,                                      !- Value Until Time 7
  08:00,                                  !- Time 8 {hh:mm}
  0,                                      !- Value Until Time 8
  09:00,                                  !- Time 9 {hh:mm}
  0,                                      !- Value Until Time 9
  10:00,                                  !- Time 10 {hh:mm}
  0,                                      !- Value Until Time 10
  11:00,                                  !- Time 11 {hh:mm}
  0,                                      !- Value Until Time 11
  12:00,                                  !- Time 12 {hh:mm}
  0,                                      !- Value Until Time 12
  13:00,                                  !- Time 13 {hh:mm}
  0,                                      !- Value Until Time 13
  14:00,                                  !- Time 14 {hh:mm}
  0,                                      !- Value Until Time 14
  15:00,                                  !- Time 15 {hh:mm}
  0,                                      !- Value Until Time 15
  16:00,                                  !- Time 16 {hh:mm}
  0,                                      !- Value Until Time 16
  17:00,                                  !- Time 17 {hh:mm}
  0,                                      !- Value Until Time 17
  18:00,                                  !- Time 18 {hh:mm}
  0,                                      !- Value Until Time 18
  19:00,                                  !- Time 19 {hh:mm}
  0,                                      !- Value Until Time 19
  20:00,                                  !- Time 20 {hh:mm}
  0,                                      !- Value Until Time 20
  21:00,                                  !- Time 21 {hh:mm}
  0,                                      !- Value Until Time 21
  22:00,                                  !- Time 22 {hh:mm}
  0,                                      !- Value Until Time 22
  23:00,                                  !- Time 23 {hh:mm}
  0,                                      !- Value Until Time 23
  24:00,                                  !- Time 24 {hh:mm}
  0;                                      !- Value Until Time 24

ElectricEquipment,
  F1 Business Center Recepticle Loads,    !- Name
  Thermal Zone: F1 Business Center,       !- Zone or ZoneList Name
  RetailReceptacle,                       !- Schedule Name
  Watts/Area,                             !- Design Level Calculation Method
  ,                                       !- Design Level {W}
  16.1458656250645,                       !- Watts per Zone Floor Area {W/m2}
  ,                                       !- Watts per Person {W/person}
  0,                                      !- Fraction Latent
  0.2,                                    !- Fraction Radiant
  0,                                      !- Fraction Lost
  Receptacle;                             !- End-Use Subcategory

ZoneInfiltration:DesignFlowRate,
  F1 Business Center Space Infiltration Design Flow Rate 1, !- Name
  Thermal Zone: F1 Business Center,       !- Zone or ZoneList Name
  RetailInfiltration,                     !- Schedule Name
  Flow/ExteriorWallArea,                  !- Design Flow Rate Calculation Method